data_image0
_chemical_formula_structural       RuMn2CoNiMnRuMnNi3CoMnRuNiMn2CoRuMnNiMn3Co2Mn2NiMn2NiCoNiCoMnRuCoRuMnRuNiMnRuMn2NiCoNiRuMn4CoMnRuCoMnNiCoNiCoRuNiCoMn4Co2Ni4CoNiRuMnCoNiMnCo2NiMn2NiCo2RuNiMnRuCoRuMnNi2MnRuNiMn2Co2Mn2RuCoNiCo2Mn2Co2MnRu2MnNiCoNi3Co2MnNi2CoNiRuMn2NiRuNiCoNi3Ru2MnNi3Mn2NiRuMn2CoRuMnNiMnRuNiMnNi2CoNiMnNiCoMn3CoRu3Ni2CoMn2CoMnNiRuMn2Ni2RuNi3MnNiCoMn2RuCoNiRuMn2Ru2MnNiRuCo3RuMn2NiMn3NiRuMn3Co4NiCoRuNi2CoMn2Ni3CoMnCo2MnNiMnCoNiCoMn2NiRuMn3Ni2MnNi2MnCoMnRuCoMn5NiRuMnNiMnRuCoRuMnNi3Mn2RuCo2MnRuMnNiRuCo2MnNi2CoNiCoRuCoMn2NiMnCoRu2Mn2CoNiMnCoNiCo4NiMnNiCoMnCoMnCoMn2CoNiMn2NiCoMnCoNiMnNiCoMn2NiRu2MnNiMnNiMn3Co2Mn4NiMn3NiCoMn2RuMnCo2NiRuCoMnNi2Co2Ni2Co2Mn2RuNi3Mn2CoNiMn3Co2Mn3Ar1052
_chemical_formula_sum              "Ru55 Mn148 Co94 Ni108 Ar1052"
_cell_length_a       71.2786
_cell_length_b       71.2786
_cell_length_c       62.3866
_cell_angle_alpha    90
_cell_angle_beta     90
_cell_angle_gamma    90

_space_group_name_H-M_alt    "P 1"
_space_group_IT_number       1

loop_
  _space_group_symop_operation_xyz
  'x, y, z'

loop_
  _atom_site_type_symbol
  _atom_site_label
  _atom_site_symmetry_multiplicity
  _atom_site_fract_x
  _atom_site_fract_y
  _atom_site_fract_z
  _atom_site_occupancy
  Ru  Ru1       1.0  0.51707  0.42266  0.47634  1.0000
  Mn  Mn1       1.0  0.48703  0.61576  0.56211  1.0000
  Mn  Mn2       1.0  0.47416  0.44841  0.53352  1.0000
  Co  Co1       1.0  0.60718  0.42695  0.50493  1.0000
  Ni  Ni1       1.0  0.45699  0.51707  0.41917  1.0000
  Mn  Mn3       1.0  0.47845  0.50419  0.56211  1.0000
  Ru  Ru2       1.0  0.50419  0.40121  0.50493  1.0000
  Mn  Mn4       1.0  0.52136  0.47845  0.50493  1.0000
  Ni  Ni2       1.0  0.52994  0.59002  0.50493  1.0000
  Ni  Ni3       1.0  0.46128  0.57285  0.67646  1.0000
  Ni  Ni4       1.0  0.51707  0.42266  0.53352  1.0000
  Co  Co2       1.0  0.56856  0.50849  0.64787  1.0000
  Mn  Mn5       1.0  0.58573  0.43983  0.47634  1.0000
  Ru  Ru3       1.0  0.52994  0.59002  0.44775  1.0000
  Ni  Ni5       1.0  0.52565  0.38833  0.59069  1.0000
  Mn  Mn6       1.0  0.40979  0.48703  0.56211  1.0000
  Mn  Mn7       1.0  0.50419  0.54711  0.50493  1.0000
  Co  Co3       1.0  0.52565  0.53423  0.47634  1.0000
  Ru  Ru4       1.0  0.50849  0.60289  0.47634  1.0000
  Mn  Mn8       1.0  0.61576  0.53852  0.56211  1.0000
  Ni  Ni6       1.0  0.42695  0.41837  0.56211  1.0000
  Mn  Mn9       1.0  0.53852  0.55569  0.44775  1.0000
  Mn  Mn10      1.0  0.55140  0.57714  0.59069  1.0000
  Mn  Mn11      1.0  0.42266  0.50849  0.59069  1.0000
  Co  Co4       1.0  0.46128  0.42695  0.44775  1.0000
  Co  Co5       1.0  0.53423  0.64580  0.59069  1.0000
  Mn  Mn12      1.0  0.56427  0.59860  0.50493  1.0000
  Mn  Mn13      1.0  0.54281  0.46557  0.47634  1.0000
  Ni  Ni7       1.0  0.49561  0.43554  0.44775  1.0000
  Mn  Mn14      1.0  0.60718  0.57285  0.56211  1.0000
  Mn  Mn15      1.0  0.50419  0.54711  0.67646  1.0000
  Ni  Ni8       1.0  0.56427  0.45270  0.67646  1.0000
  Co  Co6       1.0  0.62006  0.44841  0.59069  1.0000
  Ni  Ni9       1.0  0.65009  0.54711  0.56211  1.0000
  Co  Co7       1.0  0.49561  0.58144  0.67646  1.0000
  Mn  Mn16      1.0  0.48274  0.55998  0.59069  1.0000
  Ru  Ru5       1.0  0.49990  0.49132  0.47634  1.0000
  Co  Co8       1.0  0.55998  0.54281  0.59069  1.0000
  Ru  Ru6       1.0  0.46128  0.57285  0.44775  1.0000
  Mn  Mn17      1.0  0.51278  0.51278  0.67646  1.0000
  Ru  Ru7       1.0  0.55998  0.54281  0.41917  1.0000
  Ni  Ni10      1.0  0.55140  0.57714  0.41917  1.0000
  Mn  Mn18      1.0  0.43983  0.43983  0.59069  1.0000
  Ru  Ru8       1.0  0.63293  0.46986  0.50493  1.0000
  Mn  Mn19      1.0  0.49132  0.52565  0.64787  1.0000
  Mn  Mn20      1.0  0.49561  0.58144  0.56211  1.0000
  Ni  Ni11      1.0  0.60718  0.42695  0.56211  1.0000
  Co  Co9       1.0  0.52994  0.59002  0.56211  1.0000
  Ni  Ni12      1.0  0.39262  0.55569  0.50493  1.0000
  Ru  Ru9       1.0  0.56427  0.59860  0.44775  1.0000
  Mn  Mn21      1.0  0.47416  0.59431  0.53352  1.0000
  Mn  Mn22      1.0  0.52136  0.62435  0.56211  1.0000
  Mn  Mn23      1.0  0.55140  0.57714  0.47634  1.0000
  Mn  Mn24      1.0  0.50419  0.54711  0.44775  1.0000
  Co  Co10      1.0  0.62006  0.44841  0.53352  1.0000
  Mn  Mn25      1.0  0.57285  0.56427  0.50493  1.0000
  Ru  Ru10      1.0  0.40979  0.48703  0.61928  1.0000
  Co  Co11      1.0  0.60289  0.51707  0.47634  1.0000
  Mn  Mn26      1.0  0.52994  0.44412  0.61928  1.0000
  Ni  Ni13      1.0  0.55998  0.39691  0.59069  1.0000
  Co  Co12      1.0  0.53423  0.49990  0.64787  1.0000
  Ni  Ni14      1.0  0.40550  0.43124  0.53352  1.0000
  Co  Co13      1.0  0.47416  0.59431  0.59069  1.0000
  Ru  Ru11      1.0  0.55569  0.63293  0.56211  1.0000
  Ni  Ni15      1.0  0.55998  0.39691  0.53352  1.0000
  Co  Co14      1.0  0.37546  0.47845  0.56211  1.0000
  Mn  Mn27      1.0  0.53852  0.40979  0.56211  1.0000
  Mn  Mn28      1.0  0.42695  0.56427  0.56211  1.0000
  Mn  Mn29      1.0  0.62435  0.50419  0.56211  1.0000
  Mn  Mn30      1.0  0.57714  0.47416  0.64787  1.0000
  Co  Co15      1.0  0.60289  0.51707  0.64787  1.0000
  Co  Co16      1.0  0.47416  0.59431  0.47634  1.0000
  Ni  Ni16      1.0  0.57714  0.47416  0.41917  1.0000
  Ni  Ni17      1.0  0.49990  0.49132  0.70505  1.0000
  Ni  Ni18      1.0  0.58144  0.52994  0.67646  1.0000
  Ni  Ni19      1.0  0.46986  0.53852  0.44775  1.0000
  Co  Co17      1.0  0.44412  0.64151  0.56211  1.0000
  Ni  Ni20      1.0  0.45270  0.46128  0.61928  1.0000
  Ru  Ru12      1.0  0.42695  0.41837  0.50493  1.0000
  Mn  Mn31      1.0  0.50419  0.54711  0.61928  1.0000
  Co  Co18      1.0  0.62006  0.59431  0.59069  1.0000
  Ni  Ni21      1.0  0.54711  0.37546  0.56211  1.0000
  Mn  Mn32      1.0  0.50849  0.45699  0.64787  1.0000
  Co  Co19      1.0  0.41837  0.45270  0.61928  1.0000
  Co  Co20      1.0  0.57285  0.41837  0.50493  1.0000
  Ni  Ni22      1.0  0.52565  0.53423  0.53352  1.0000
  Mn  Mn33      1.0  0.55569  0.48703  0.44775  1.0000
  Mn  Mn34      1.0  0.61147  0.48274  0.53352  1.0000
  Ni  Ni23      1.0  0.39691  0.46557  0.53352  1.0000
  Co  Co21      1.0  0.61576  0.53852  0.50493  1.0000
  Co  Co22      1.0  0.48703  0.46986  0.61928  1.0000
  Ru  Ru13      1.0  0.59860  0.46128  0.44775  1.0000
  Ni  Ni24      1.0  0.41837  0.45270  0.50493  1.0000
  Mn  Mn35      1.0  0.44841  0.55140  0.53352  1.0000
  Ru  Ru14      1.0  0.62435  0.50419  0.61928  1.0000
  Co  Co23      1.0  0.51278  0.51278  0.56211  1.0000
  Ru  Ru15      1.0  0.49990  0.49132  0.53352  1.0000
  Mn  Mn36      1.0  0.42266  0.50849  0.53352  1.0000
  Ni  Ni25      1.0  0.41837  0.59860  0.56211  1.0000
  Ni  Ni26      1.0  0.40550  0.57714  0.47634  1.0000
  Mn  Mn37      1.0  0.51278  0.51278  0.44775  1.0000
  Ru  Ru16      1.0  0.42695  0.56427  0.44775  1.0000
  Ni  Ni27      1.0  0.58573  0.43983  0.64787  1.0000
  Mn  Mn38      1.0  0.52994  0.44412  0.50493  1.0000
  Mn  Mn39      1.0  0.43983  0.43983  0.53352  1.0000
  Co  Co24      1.0  0.62006  0.44841  0.64787  1.0000
  Co  Co25      1.0  0.44412  0.49561  0.61928  1.0000
  Mn  Mn40      1.0  0.50849  0.60289  0.64787  1.0000
  Mn  Mn41      1.0  0.59002  0.49561  0.61928  1.0000
  Ru  Ru17      1.0  0.54711  0.52136  0.61928  1.0000
  Co  Co26      1.0  0.41408  0.54281  0.53352  1.0000
  Ni  Ni28      1.0  0.64580  0.49132  0.59069  1.0000
  Co  Co27      1.0  0.53852  0.40979  0.50493  1.0000
  Co  Co28      1.0  0.43983  0.58573  0.59069  1.0000
  Mn  Mn42      1.0  0.55140  0.43124  0.53352  1.0000
  Mn  Mn43      1.0  0.56427  0.45270  0.50493  1.0000
  Co  Co29      1.0  0.41408  0.54281  0.64787  1.0000
  Co  Co30      1.0  0.44841  0.40550  0.53352  1.0000
  Mn  Mn44      1.0  0.47416  0.44841  0.59069  1.0000
  Ru  Ru18      1.0  0.40121  0.52136  0.50493  1.0000
  Ru  Ru19      1.0  0.38833  0.49990  0.53352  1.0000
  Mn  Mn45      1.0  0.52136  0.47845  0.67646  1.0000
  Ni  Ni29      1.0  0.65868  0.51278  0.56211  1.0000
  Co  Co31      1.0  0.57714  0.47416  0.70505  1.0000
  Ni  Ni30      1.0  0.44841  0.55140  0.41917  1.0000
  Ni  Ni31      1.0  0.55998  0.54281  0.70505  1.0000
  Ni  Ni32      1.0  0.41837  0.59860  0.50493  1.0000
  Co  Co32      1.0  0.43124  0.47416  0.64787  1.0000
  Co  Co33      1.0  0.50849  0.45699  0.53352  1.0000
  Mn  Mn46      1.0  0.44412  0.49561  0.56211  1.0000
  Ni  Ni33      1.0  0.47416  0.44841  0.70505  1.0000
  Ni  Ni34      1.0  0.45699  0.51707  0.70505  1.0000
  Co  Co34      1.0  0.45699  0.51707  0.53352  1.0000
  Ni  Ni35      1.0  0.50849  0.45699  0.59069  1.0000
  Ru  Ru20      1.0  0.49990  0.63722  0.59069  1.0000
  Mn  Mn47      1.0  0.54281  0.46557  0.53352  1.0000
  Mn  Mn48      1.0  0.55569  0.48703  0.67646  1.0000
  Ni  Ni36      1.0  0.41837  0.45270  0.56211  1.0000
  Ru  Ru21      1.0  0.45270  0.60718  0.61928  1.0000
  Ni  Ni37      1.0  0.48274  0.55998  0.53352  1.0000
  Co  Co35      1.0  0.46986  0.39262  0.50493  1.0000
  Ni  Ni38      1.0  0.59002  0.49561  0.50493  1.0000
  Ni  Ni39      1.0  0.51707  0.56856  0.59069  1.0000
  Ni  Ni40      1.0  0.52136  0.47845  0.44775  1.0000
  Ru  Ru22      1.0  0.53423  0.49990  0.47634  1.0000
  Ru  Ru23      1.0  0.44412  0.49561  0.67646  1.0000
  Mn  Mn49      1.0  0.40121  0.52136  0.61928  1.0000
  Ni  Ni41      1.0  0.59860  0.46128  0.67646  1.0000
  Ni  Ni42      1.0  0.62864  0.55998  0.53352  1.0000
  Ni  Ni43      1.0  0.44841  0.55140  0.70505  1.0000
  Mn  Mn50      1.0  0.57714  0.47416  0.47634  1.0000
  Mn  Mn51      1.0  0.47845  0.50419  0.50493  1.0000
  Ni  Ni44      1.0  0.40550  0.57714  0.59069  1.0000
  Ru  Ru24      1.0  0.38833  0.49990  0.59069  1.0000
  Mn  Mn52      1.0  0.42695  0.56427  0.50493  1.0000
  Mn  Mn53      1.0  0.52136  0.47845  0.61928  1.0000
  Co  Co36      1.0  0.48274  0.55998  0.47634  1.0000
  Ru  Ru25      1.0  0.46557  0.62864  0.53352  1.0000
  Mn  Mn54      1.0  0.47845  0.50419  0.61928  1.0000
  Ni  Ni45      1.0  0.45699  0.51707  0.47634  1.0000
  Mn  Mn55      1.0  0.49561  0.43554  0.61928  1.0000
  Ru  Ru26      1.0  0.45270  0.46128  0.56211  1.0000
  Ni  Ni46      1.0  0.54281  0.61147  0.47634  1.0000
  Mn  Mn56      1.0  0.45699  0.51707  0.64787  1.0000
  Ni  Ni47      1.0  0.51278  0.65868  0.56211  1.0000
  Ni  Ni48      1.0  0.46557  0.48274  0.70505  1.0000
  Co  Co37      1.0  0.48703  0.46986  0.50493  1.0000
  Ni  Ni49      1.0  0.42266  0.50849  0.47634  1.0000
  Mn  Mn57      1.0  0.56427  0.45270  0.56211  1.0000
  Ni  Ni50      1.0  0.54281  0.46557  0.41917  1.0000
  Co  Co38      1.0  0.56856  0.50849  0.59069  1.0000
  Mn  Mn58      1.0  0.43554  0.52994  0.56211  1.0000
  Mn  Mn59      1.0  0.58573  0.43983  0.53352  1.0000
  Mn  Mn60      1.0  0.58144  0.52994  0.50493  1.0000
  Co  Co39      1.0  0.43983  0.58573  0.64787  1.0000
  Ru  Ru27      1.0  0.62006  0.59431  0.53352  1.0000
  Ru  Ru28      1.0  0.46557  0.48274  0.41917  1.0000
  Ru  Ru29      1.0  0.62435  0.50419  0.50493  1.0000
  Ni  Ni51      1.0  0.49990  0.63722  0.53352  1.0000
  Ni  Ni52      1.0  0.57714  0.62006  0.47634  1.0000
  Co  Co40      1.0  0.37975  0.53423  0.59069  1.0000
  Mn  Mn61      1.0  0.50849  0.60289  0.59069  1.0000
  Mn  Mn62      1.0  0.56427  0.45270  0.61928  1.0000
  Co  Co41      1.0  0.45270  0.60718  0.50493  1.0000
  Mn  Mn63      1.0  0.46986  0.53852  0.56211  1.0000
  Ni  Ni53      1.0  0.63722  0.52565  0.59069  1.0000
  Ru  Ru30      1.0  0.53423  0.49990  0.70505  1.0000
  Mn  Mn64      1.0  0.53852  0.55569  0.67646  1.0000
  Mn  Mn65      1.0  0.49561  0.43554  0.56211  1.0000
  Ni  Ni54      1.0  0.49132  0.52565  0.59069  1.0000
  Ni  Ni55      1.0  0.46557  0.48274  0.47634  1.0000
  Ru  Ru31      1.0  0.52565  0.53423  0.70505  1.0000
  Ni  Ni56      1.0  0.59431  0.40550  0.59069  1.0000
  Ni  Ni57      1.0  0.57714  0.62006  0.53352  1.0000
  Ni  Ni58      1.0  0.43124  0.47416  0.47634  1.0000
  Mn  Mn66      1.0  0.55569  0.48703  0.61928  1.0000
  Ni  Ni59      1.0  0.52136  0.62435  0.50493  1.0000
  Co  Co42      1.0  0.43124  0.62006  0.59069  1.0000
  Mn  Mn67      1.0  0.59860  0.46128  0.61928  1.0000
  Mn  Mn68      1.0  0.47416  0.44841  0.64787  1.0000
  Ru  Ru32      1.0  0.41408  0.54281  0.47634  1.0000
  Co  Co43      1.0  0.56427  0.45270  0.44775  1.0000
  Ni  Ni60      1.0  0.55569  0.63293  0.50493  1.0000
  Ru  Ru33      1.0  0.52136  0.62435  0.61928  1.0000
  Mn  Mn69      1.0  0.43554  0.52994  0.50493  1.0000
  Mn  Mn70      1.0  0.53852  0.55569  0.50493  1.0000
  Ru  Ru34      1.0  0.44841  0.40550  0.59069  1.0000
  Ru  Ru35      1.0  0.60718  0.42695  0.61928  1.0000
  Mn  Mn71      1.0  0.48274  0.41408  0.64787  1.0000
  Ni  Ni61      1.0  0.62864  0.55998  0.59069  1.0000
  Ru  Ru36      1.0  0.43554  0.52994  0.67646  1.0000
  Co  Co44      1.0  0.54711  0.52136  0.50493  1.0000
  Co  Co45      1.0  0.49132  0.52565  0.47634  1.0000
  Co  Co46      1.0  0.51278  0.51278  0.50493  1.0000
  Ru  Ru37      1.0  0.48703  0.61576  0.50493  1.0000
  Mn  Mn72      1.0  0.49561  0.43554  0.50493  1.0000
  Mn  Mn73      1.0  0.44841  0.55140  0.47634  1.0000
  Ni  Ni62      1.0  0.52994  0.44412  0.44775  1.0000
  Mn  Mn74      1.0  0.57714  0.47416  0.59069  1.0000
  Mn  Mn75      1.0  0.55998  0.54281  0.47634  1.0000
  Mn  Mn76      1.0  0.57714  0.47416  0.53352  1.0000
  Ni  Ni63      1.0  0.55569  0.63293  0.61928  1.0000
  Ru  Ru38      1.0  0.60718  0.57285  0.50493  1.0000
  Mn  Mn77      1.0  0.43983  0.43983  0.64787  1.0000
  Mn  Mn78      1.0  0.46986  0.53852  0.61928  1.0000
  Mn  Mn79      1.0  0.50849  0.60289  0.53352  1.0000
  Co  Co47      1.0  0.53852  0.55569  0.56211  1.0000
  Co  Co48      1.0  0.63293  0.46986  0.61928  1.0000
  Co  Co49      1.0  0.45270  0.46128  0.44775  1.0000
  Co  Co50      1.0  0.47416  0.44841  0.41917  1.0000
  Ni  Ni64      1.0  0.59860  0.60718  0.61928  1.0000
  Co  Co51      1.0  0.48703  0.46986  0.56211  1.0000
  Ru  Ru39      1.0  0.54281  0.46557  0.70505  1.0000
  Ni  Ni65      1.0  0.64151  0.58144  0.56211  1.0000
  Ni  Ni66      1.0  0.56856  0.50849  0.70505  1.0000
  Co  Co52      1.0  0.59860  0.60718  0.56211  1.0000
  Mn  Mn80      1.0  0.59860  0.46128  0.50493  1.0000
  Mn  Mn81      1.0  0.48274  0.55998  0.64787  1.0000
  Ni  Ni67      1.0  0.54281  0.46557  0.59069  1.0000
  Ni  Ni68      1.0  0.50849  0.45699  0.70505  1.0000
  Ni  Ni69      1.0  0.52565  0.38833  0.53352  1.0000
  Co  Co53      1.0  0.42266  0.50849  0.64787  1.0000
  Mn  Mn82      1.0  0.42695  0.56427  0.61928  1.0000
  Co  Co54      1.0  0.49561  0.58144  0.44775  1.0000
  Co  Co55      1.0  0.52565  0.53423  0.59069  1.0000
  Mn  Mn83      1.0  0.52994  0.44412  0.56211  1.0000
  Ni  Ni70      1.0  0.56856  0.50849  0.41917  1.0000
  Mn  Mn84      1.0  0.56427  0.59860  0.56211  1.0000
  Co  Co56      1.0  0.42695  0.56427  0.67646  1.0000
  Ni  Ni71      1.0  0.48274  0.55998  0.70505  1.0000
  Co  Co57      1.0  0.51707  0.42266  0.59069  1.0000
  Mn  Mn85      1.0  0.58144  0.52994  0.61928  1.0000
  Mn  Mn86      1.0  0.47845  0.50419  0.44775  1.0000
  Ni  Ni72      1.0  0.39262  0.55569  0.61928  1.0000
  Ru  Ru40      1.0  0.56427  0.59860  0.67646  1.0000
  Mn  Mn87      1.0  0.58144  0.52994  0.56211  1.0000
  Mn  Mn88      1.0  0.48703  0.46986  0.67646  1.0000
  Mn  Mn89      1.0  0.56427  0.59860  0.61928  1.0000
  Ni  Ni73      1.0  0.49132  0.52565  0.70505  1.0000
  Ni  Ni74      1.0  0.40550  0.43124  0.59069  1.0000
  Mn  Mn90      1.0  0.57285  0.56427  0.56211  1.0000
  Ni  Ni75      1.0  0.50849  0.45699  0.47634  1.0000
  Ni  Ni76      1.0  0.51278  0.36688  0.56211  1.0000
  Mn  Mn91      1.0  0.44841  0.55140  0.59069  1.0000
  Co  Co58      1.0  0.61147  0.48274  0.64787  1.0000
  Mn  Mn92      1.0  0.53852  0.55569  0.61928  1.0000
  Ru  Ru41      1.0  0.60718  0.57285  0.61928  1.0000
  Co  Co59      1.0  0.54281  0.61147  0.64787  1.0000
  Mn  Mn93      1.0  0.54281  0.61147  0.53352  1.0000
  Mn  Mn94      1.0  0.46986  0.53852  0.67646  1.0000
  Mn  Mn95      1.0  0.48274  0.41408  0.53352  1.0000
  Mn  Mn96      1.0  0.55140  0.57714  0.64787  1.0000
  Mn  Mn97      1.0  0.54281  0.46557  0.64787  1.0000
  Ni  Ni77      1.0  0.39262  0.55569  0.56211  1.0000
  Ru  Ru42      1.0  0.46128  0.42695  0.67646  1.0000
  Mn  Mn98      1.0  0.54711  0.52136  0.44775  1.0000
  Ni  Ni78      1.0  0.58144  0.38404  0.56211  1.0000
  Mn  Mn99      1.0  0.59002  0.49561  0.56211  1.0000
  Ru  Ru43      1.0  0.61576  0.53852  0.61928  1.0000
  Co  Co60      1.0  0.49132  0.37975  0.53352  1.0000
  Ru  Ru44      1.0  0.54711  0.52136  0.56211  1.0000
  Mn  Mn100     1.0  0.46128  0.57285  0.56211  1.0000
  Ni  Ni79      1.0  0.57714  0.62006  0.59069  1.0000
  Ni  Ni80      1.0  0.57285  0.56427  0.67646  1.0000
  Ni  Ni81      1.0  0.57714  0.62006  0.64787  1.0000
  Mn  Mn101     1.0  0.47416  0.44841  0.47634  1.0000
  Mn  Mn102     1.0  0.55140  0.57714  0.53352  1.0000
  Ru  Ru45      1.0  0.57285  0.41837  0.61928  1.0000
  Co  Co61      1.0  0.47845  0.65009  0.56211  1.0000
  Co  Co62      1.0  0.55569  0.48703  0.56211  1.0000
  Mn  Mn103     1.0  0.60289  0.51707  0.59069  1.0000
  Ru  Ru46      1.0  0.58573  0.58573  0.64787  1.0000
  Mn  Mn104     1.0  0.51707  0.56856  0.64787  1.0000
  Ni  Ni82      1.0  0.59431  0.55140  0.64787  1.0000
  Ru  Ru47      1.0  0.46986  0.53852  0.50493  1.0000
  Co  Co63      1.0  0.53423  0.49990  0.59069  1.0000
  Co  Co64      1.0  0.37975  0.53423  0.53352  1.0000
  Mn  Mn105     1.0  0.56856  0.50849  0.53352  1.0000
  Ni  Ni83      1.0  0.43983  0.58573  0.47634  1.0000
  Ni  Ni84      1.0  0.43124  0.47416  0.53352  1.0000
  Co  Co65      1.0  0.58573  0.58573  0.47634  1.0000
  Ni  Ni85      1.0  0.55998  0.54281  0.64787  1.0000
  Co  Co66      1.0  0.44841  0.40550  0.47634  1.0000
  Ru  Ru48      1.0  0.59002  0.49561  0.67646  1.0000
  Co  Co67      1.0  0.49561  0.43554  0.67646  1.0000
  Mn  Mn106     1.0  0.56856  0.50849  0.47634  1.0000
  Mn  Mn107     1.0  0.45270  0.46128  0.50493  1.0000
  Ni  Ni86      1.0  0.44412  0.49561  0.50493  1.0000
  Mn  Mn108     1.0  0.50419  0.54711  0.56211  1.0000
  Co  Co68      1.0  0.51707  0.56856  0.41917  1.0000
  Ru  Ru49      1.0  0.58144  0.52994  0.44775  1.0000
  Ru  Ru50      1.0  0.53852  0.40979  0.61928  1.0000
  Mn  Mn109     1.0  0.57285  0.41837  0.56211  1.0000
  Mn  Mn110     1.0  0.55140  0.43124  0.59069  1.0000
  Co  Co69      1.0  0.59431  0.55140  0.47634  1.0000
  Ni  Ni87      1.0  0.41408  0.54281  0.59069  1.0000
  Mn  Mn111     1.0  0.49561  0.58144  0.50493  1.0000
  Co  Co70      1.0  0.54281  0.61147  0.59069  1.0000
  Ni  Ni88      1.0  0.39691  0.46557  0.59069  1.0000
  Co  Co71      1.0  0.50419  0.40121  0.61928  1.0000
  Co  Co72      1.0  0.36688  0.51278  0.56211  1.0000
  Co  Co73      1.0  0.48274  0.55998  0.41917  1.0000
  Co  Co74      1.0  0.52994  0.59002  0.67646  1.0000
  Ni  Ni89      1.0  0.38404  0.44412  0.56211  1.0000
  Mn  Mn112     1.0  0.46128  0.42695  0.50493  1.0000
  Ni  Ni90      1.0  0.43124  0.62006  0.53352  1.0000
  Co  Co75      1.0  0.46128  0.57285  0.61928  1.0000
  Mn  Mn113     1.0  0.58573  0.58573  0.59069  1.0000
  Co  Co76      1.0  0.59002  0.49561  0.44775  1.0000
  Mn  Mn114     1.0  0.45699  0.51707  0.59069  1.0000
  Co  Co77      1.0  0.46986  0.39262  0.56211  1.0000
  Mn  Mn115     1.0  0.51707  0.56856  0.53352  1.0000
  Mn  Mn116     1.0  0.59860  0.46128  0.56211  1.0000
  Co  Co78      1.0  0.48274  0.41408  0.47634  1.0000
  Ni  Ni91      1.0  0.55140  0.57714  0.70505  1.0000
  Mn  Mn117     1.0  0.59431  0.55140  0.53352  1.0000
  Mn  Mn118     1.0  0.46557  0.48274  0.59069  1.0000
  Ni  Ni92      1.0  0.50849  0.45699  0.41917  1.0000
  Co  Co79      1.0  0.53423  0.49990  0.53352  1.0000
  Mn  Mn119     1.0  0.57285  0.56427  0.44775  1.0000
  Co  Co80      1.0  0.43124  0.47416  0.59069  1.0000
  Ni  Ni93      1.0  0.49132  0.37975  0.59069  1.0000
  Mn  Mn120     1.0  0.49561  0.58144  0.61928  1.0000
  Ni  Ni94      1.0  0.41837  0.59860  0.61928  1.0000
  Co  Co81      1.0  0.55140  0.43124  0.64787  1.0000
  Mn  Mn121     1.0  0.52136  0.47845  0.56211  1.0000
  Mn  Mn122     1.0  0.50419  0.40121  0.56211  1.0000
  Ni  Ni95      1.0  0.44412  0.49561  0.44775  1.0000
  Ru  Ru51      1.0  0.51707  0.56856  0.70505  1.0000
  Ru  Ru52      1.0  0.52994  0.44412  0.67646  1.0000
  Mn  Mn123     1.0  0.55569  0.48703  0.50493  1.0000
  Ni  Ni96      1.0  0.59860  0.60718  0.50493  1.0000
  Mn  Mn124     1.0  0.48703  0.46986  0.44775  1.0000
  Ni  Ni97      1.0  0.49990  0.49132  0.41917  1.0000
  Mn  Mn125     1.0  0.61147  0.48274  0.59069  1.0000
  Mn  Mn126     1.0  0.59431  0.55140  0.59069  1.0000
  Mn  Mn127     1.0  0.54711  0.52136  0.67646  1.0000
  Co  Co82      1.0  0.46557  0.48274  0.53352  1.0000
  Co  Co83      1.0  0.63722  0.52565  0.53352  1.0000
  Mn  Mn128     1.0  0.61147  0.48274  0.47634  1.0000
  Mn  Mn129     1.0  0.49990  0.49132  0.59069  1.0000
  Mn  Mn130     1.0  0.46557  0.48274  0.64787  1.0000
  Mn  Mn131     1.0  0.60289  0.51707  0.53352  1.0000
  Ni  Ni98      1.0  0.63293  0.46986  0.56211  1.0000
  Mn  Mn132     1.0  0.57285  0.56427  0.61928  1.0000
  Mn  Mn133     1.0  0.43983  0.58573  0.53352  1.0000
  Mn  Mn134     1.0  0.55998  0.54281  0.53352  1.0000
  Ni  Ni99      1.0  0.53423  0.64580  0.53352  1.0000
  Co  Co84      1.0  0.45270  0.46128  0.67646  1.0000
  Mn  Mn135     1.0  0.47845  0.50419  0.67646  1.0000
  Mn  Mn136     1.0  0.46128  0.42695  0.61928  1.0000
  Ru  Ru53      1.0  0.43983  0.43983  0.47634  1.0000
  Mn  Mn137     1.0  0.51707  0.56856  0.47634  1.0000
  Co  Co85      1.0  0.51707  0.42266  0.64787  1.0000
  Co  Co86      1.0  0.48703  0.61576  0.61928  1.0000
  Ni  Ni100     1.0  0.53423  0.49990  0.41917  1.0000
  Ru  Ru54      1.0  0.42695  0.41837  0.61928  1.0000
  Co  Co87      1.0  0.55140  0.43124  0.47634  1.0000
  Mn  Mn138     1.0  0.40121  0.52136  0.56211  1.0000
  Ni  Ni101     1.0  0.40550  0.57714  0.53352  1.0000
  Ni  Ni102     1.0  0.44841  0.40550  0.64787  1.0000
  Co  Co88      1.0  0.49132  0.52565  0.53352  1.0000
  Co  Co89      1.0  0.52565  0.53423  0.64787  1.0000
  Ni  Ni103     1.0  0.46986  0.39262  0.61928  1.0000
  Ni  Ni104     1.0  0.49132  0.52565  0.41917  1.0000
  Co  Co90      1.0  0.59431  0.40550  0.53352  1.0000
  Co  Co91      1.0  0.62006  0.44841  0.47634  1.0000
  Mn  Mn139     1.0  0.52994  0.59002  0.61928  1.0000
  Mn  Mn140     1.0  0.43554  0.52994  0.61928  1.0000
  Ru  Ru55      1.0  0.52565  0.53423  0.41917  1.0000
  Ni  Ni105     1.0  0.40550  0.57714  0.64787  1.0000
  Ni  Ni106     1.0  0.40979  0.48703  0.50493  1.0000
  Ni  Ni107     1.0  0.64580  0.49132  0.53352  1.0000
  Mn  Mn141     1.0  0.58573  0.43983  0.59069  1.0000
  Mn  Mn142     1.0  0.46128  0.42695  0.56211  1.0000
  Co  Co92      1.0  0.51278  0.51278  0.61928  1.0000
  Ni  Ni108     1.0  0.43554  0.52994  0.44775  1.0000
  Mn  Mn143     1.0  0.46128  0.57285  0.50493  1.0000
  Mn  Mn144     1.0  0.44841  0.55140  0.64787  1.0000
  Mn  Mn145     1.0  0.45270  0.60718  0.56211  1.0000
  Co  Co93      1.0  0.46557  0.62864  0.59069  1.0000
  Co  Co94      1.0  0.47416  0.59431  0.64787  1.0000
  Mn  Mn146     1.0  0.48274  0.41408  0.59069  1.0000
  Mn  Mn147     1.0  0.58573  0.58573  0.53352  1.0000
  Mn  Mn148     1.0  0.49990  0.49132  0.64787  1.0000
  Ar  Ar1       1.0  0.52354  0.39677  0.48337  1.0000
  Ar  Ar2       1.0  0.50208  0.40965  0.45478  1.0000
  Ar  Ar3       1.0  0.53641  0.41823  0.45478  1.0000
  Ar  Ar4       1.0  0.59220  0.41394  0.48337  1.0000
  Ar  Ar5       1.0  0.43110  0.51060  0.42619  1.0000
  Ar  Ar6       1.0  0.48921  0.38819  0.48337  1.0000
  Ar  Ar7       1.0  0.51066  0.37532  0.51196  1.0000
  Ar  Ar8       1.0  0.47626  0.58587  0.69802  1.0000
  Ar  Ar9       1.0  0.44194  0.57729  0.69802  1.0000
  Ar  Ar10      1.0  0.45481  0.59874  0.66943  1.0000
  Ar  Ar11      1.0  0.60507  0.43539  0.45478  1.0000
  Ar  Ar12      1.0  0.57075  0.42681  0.45478  1.0000
  Ar  Ar13      1.0  0.52347  0.61591  0.45478  1.0000
  Ar  Ar14      1.0  0.54493  0.60303  0.42619  1.0000
  Ar  Ar15      1.0  0.51060  0.59445  0.42619  1.0000
  Ar  Ar16      1.0  0.54499  0.38390  0.61225  1.0000
  Ar  Ar17      1.0  0.53212  0.36244  0.58367  1.0000
  Ar  Ar18      1.0  0.51066  0.37532  0.61225  1.0000
  Ar  Ar19      1.0  0.48914  0.60733  0.45478  1.0000
  Ar  Ar20      1.0  0.50201  0.62878  0.48337  1.0000
  Ar  Ar21      1.0  0.48063  0.42252  0.42619  1.0000
  Ar  Ar22      1.0  0.44827  0.44194  0.42619  1.0000
  Ar  Ar23      1.0  0.46775  0.40106  0.45478  1.0000
  Ar  Ar24      1.0  0.43539  0.42048  0.45478  1.0000
  Ar  Ar25      1.0  0.51489  0.65024  0.61225  1.0000
  Ar  Ar26      1.0  0.51496  0.43110  0.42619  1.0000
  Ar  Ar27      1.0  0.57075  0.42681  0.66943  1.0000
  Ar  Ar28      1.0  0.58361  0.44827  0.69802  1.0000
  Ar  Ar29      1.0  0.54928  0.43968  0.69802  1.0000
  Ar  Ar30      1.0  0.66311  0.53213  0.58367  1.0000
  Ar  Ar31      1.0  0.66311  0.53213  0.54055  1.0000
  Ar  Ar32      1.0  0.65453  0.56645  0.54055  1.0000
  Ar  Ar33      1.0  0.65453  0.56645  0.58367  1.0000
  Ar  Ar34      1.0  0.48914  0.60733  0.66943  1.0000
  Ar  Ar35      1.0  0.51060  0.59445  0.69802  1.0000
  Ar  Ar36      1.0  0.45481  0.59874  0.45478  1.0000
  Ar  Ar37      1.0  0.44194  0.57729  0.42619  1.0000
  Ar  Ar38      1.0  0.47626  0.58587  0.42619  1.0000
  Ar  Ar39      1.0  0.58587  0.54929  0.42619  1.0000
  Ar  Ar40      1.0  0.57729  0.58361  0.42619  1.0000
  Ar  Ar41      1.0  0.63736  0.48921  0.48337  1.0000
  Ar  Ar42      1.0  0.38819  0.53634  0.48337  1.0000
  Ar  Ar43      1.0  0.55779  0.62449  0.45478  1.0000
  Ar  Ar44      1.0  0.59016  0.60508  0.45478  1.0000
  Ar  Ar45      1.0  0.40535  0.46769  0.64084  1.0000
  Ar  Ar46      1.0  0.39677  0.50202  0.64084  1.0000
  Ar  Ar47      1.0  0.38390  0.48056  0.61225  1.0000
  Ar  Ar48      1.0  0.62878  0.52354  0.48337  1.0000
  Ar  Ar49      1.0  0.60733  0.53641  0.45478  1.0000
  Ar  Ar50      1.0  0.61591  0.50208  0.45478  1.0000
  Ar  Ar51      1.0  0.56645  0.37102  0.58367  1.0000
  Ar  Ar52      1.0  0.57933  0.39248  0.61225  1.0000
  Ar  Ar53      1.0  0.39248  0.44622  0.51196  1.0000
  Ar  Ar54      1.0  0.56645  0.37102  0.54055  1.0000
  Ar  Ar55      1.0  0.57933  0.39248  0.51196  1.0000
  Ar  Ar56      1.0  0.54499  0.38390  0.51196  1.0000
  Ar  Ar57      1.0  0.37102  0.45910  0.54055  1.0000
  Ar  Ar58      1.0  0.36244  0.49343  0.54055  1.0000
  Ar  Ar59      1.0  0.36244  0.49343  0.58367  1.0000
  Ar  Ar60      1.0  0.37102  0.45910  0.58367  1.0000
  Ar  Ar61      1.0  0.60733  0.53641  0.66943  1.0000
  Ar  Ar62      1.0  0.62878  0.52354  0.64084  1.0000
  Ar  Ar63      1.0  0.61591  0.50208  0.66943  1.0000
  Ar  Ar64      1.0  0.46769  0.62020  0.48337  1.0000
  Ar  Ar65      1.0  0.58361  0.44827  0.42619  1.0000
  Ar  Ar66      1.0  0.60303  0.48063  0.42619  1.0000
  Ar  Ar67      1.0  0.58587  0.54929  0.69802  1.0000
  Ar  Ar68      1.0  0.59445  0.51496  0.69802  1.0000
  Ar  Ar69      1.0  0.45910  0.65453  0.54055  1.0000
  Ar  Ar70      1.0  0.45910  0.65453  0.58367  1.0000
  Ar  Ar71      1.0  0.41394  0.43336  0.48337  1.0000
  Ar  Ar72      1.0  0.63307  0.57932  0.61225  1.0000
  Ar  Ar73      1.0  0.53212  0.36244  0.54055  1.0000
  Ar  Ar74      1.0  0.41394  0.43336  0.64084  1.0000
  Ar  Ar75      1.0  0.39248  0.44622  0.61225  1.0000
  Ar  Ar76      1.0  0.55787  0.40535  0.48337  1.0000
  Ar  Ar77      1.0  0.38390  0.48056  0.51196  1.0000
  Ar  Ar78      1.0  0.64165  0.54499  0.51196  1.0000
  Ar  Ar79      1.0  0.62020  0.55787  0.48337  1.0000
  Ar  Ar80      1.0  0.62449  0.46776  0.45478  1.0000
  Ar  Ar81      1.0  0.40535  0.46769  0.48337  1.0000
  Ar  Ar82      1.0  0.65024  0.51066  0.61225  1.0000
  Ar  Ar83      1.0  0.63736  0.48921  0.64084  1.0000
  Ar  Ar84      1.0  0.40106  0.55780  0.45478  1.0000
  Ar  Ar85      1.0  0.42048  0.59016  0.45478  1.0000
  Ar  Ar86      1.0  0.42252  0.54492  0.42619  1.0000
  Ar  Ar87      1.0  0.60507  0.43539  0.66943  1.0000
  Ar  Ar88      1.0  0.59220  0.41394  0.64084  1.0000
  Ar  Ar89      1.0  0.62449  0.46776  0.66943  1.0000
  Ar  Ar90      1.0  0.50201  0.62878  0.64084  1.0000
  Ar  Ar91      1.0  0.52347  0.61591  0.66943  1.0000
  Ar  Ar92      1.0  0.38819  0.53634  0.64084  1.0000
  Ar  Ar93      1.0  0.40965  0.52347  0.66943  1.0000
  Ar  Ar94      1.0  0.40106  0.55780  0.66943  1.0000
  Ar  Ar95      1.0  0.37532  0.51489  0.51196  1.0000
  Ar  Ar96      1.0  0.39677  0.50202  0.48337  1.0000
  Ar  Ar97      1.0  0.60303  0.48063  0.69802  1.0000
  Ar  Ar98      1.0  0.43336  0.61162  0.48337  1.0000
  Ar  Ar99      1.0  0.41823  0.48914  0.66943  1.0000
  Ar  Ar100     1.0  0.42681  0.45481  0.66943  1.0000
  Ar  Ar101     1.0  0.48063  0.42252  0.69802  1.0000
  Ar  Ar102     1.0  0.44827  0.44194  0.69802  1.0000
  Ar  Ar103     1.0  0.43110  0.51060  0.69802  1.0000
  Ar  Ar104     1.0  0.49343  0.66311  0.58367  1.0000
  Ar  Ar105     1.0  0.48056  0.64165  0.61225  1.0000
  Ar  Ar106     1.0  0.43336  0.61162  0.64084  1.0000
  Ar  Ar107     1.0  0.44623  0.63307  0.61225  1.0000
  Ar  Ar108     1.0  0.46769  0.62020  0.64084  1.0000
  Ar  Ar109     1.0  0.43968  0.47627  0.69802  1.0000
  Ar  Ar110     1.0  0.37532  0.51489  0.61225  1.0000
  Ar  Ar111     1.0  0.63307  0.57932  0.51196  1.0000
  Ar  Ar112     1.0  0.42252  0.54492  0.69802  1.0000
  Ar  Ar113     1.0  0.48056  0.64165  0.51196  1.0000
  Ar  Ar114     1.0  0.44623  0.63307  0.51196  1.0000
  Ar  Ar115     1.0  0.53634  0.63736  0.48337  1.0000
  Ar  Ar116     1.0  0.49343  0.66311  0.54055  1.0000
  Ar  Ar117     1.0  0.41823  0.48914  0.45478  1.0000
  Ar  Ar118     1.0  0.40965  0.52347  0.45478  1.0000
  Ar  Ar119     1.0  0.54928  0.43968  0.42619  1.0000
  Ar  Ar120     1.0  0.42048  0.59016  0.66943  1.0000
  Ar  Ar121     1.0  0.43968  0.47627  0.42619  1.0000
  Ar  Ar122     1.0  0.65024  0.51066  0.51196  1.0000
  Ar  Ar123     1.0  0.51489  0.65024  0.51196  1.0000
  Ar  Ar124     1.0  0.64165  0.54499  0.61225  1.0000
  Ar  Ar125     1.0  0.42681  0.45481  0.45478  1.0000
  Ar  Ar126     1.0  0.53634  0.63736  0.64084  1.0000
  Ar  Ar127     1.0  0.46775  0.40106  0.66943  1.0000
  Ar  Ar128     1.0  0.50208  0.40965  0.66943  1.0000
  Ar  Ar129     1.0  0.48921  0.38819  0.64084  1.0000
  Ar  Ar130     1.0  0.61162  0.59220  0.48337  1.0000
  Ar  Ar131     1.0  0.43539  0.42048  0.66943  1.0000
  Ar  Ar132     1.0  0.61162  0.59220  0.64084  1.0000
  Ar  Ar133     1.0  0.51496  0.43110  0.69802  1.0000
  Ar  Ar134     1.0  0.59445  0.51496  0.42619  1.0000
  Ar  Ar135     1.0  0.55779  0.62449  0.66943  1.0000
  Ar  Ar136     1.0  0.57729  0.58361  0.69802  1.0000
  Ar  Ar137     1.0  0.59016  0.60508  0.66943  1.0000
  Ar  Ar138     1.0  0.54493  0.60303  0.69802  1.0000
  Ar  Ar139     1.0  0.62020  0.55787  0.64084  1.0000
  Ar  Ar140     1.0  0.59874  0.57074  0.66943  1.0000
  Ar  Ar141     1.0  0.55787  0.40535  0.64084  1.0000
  Ar  Ar142     1.0  0.59874  0.57074  0.45478  1.0000
  Ar  Ar143     1.0  0.52354  0.39677  0.64084  1.0000
  Ar  Ar144     1.0  0.53641  0.41823  0.66943  1.0000
  Ar  Ar145     1.0  0.52207  0.40266  0.45968  1.0000
  Ar  Ar146     1.0  0.62024  0.40769  0.49374  1.0000
  Ar  Ar147     1.0  0.44355  0.51371  0.39505  1.0000
  Ar  Ar148     1.0  0.50919  0.38121  0.48827  1.0000
  Ar  Ar149     1.0  0.45628  0.59285  0.69312  1.0000
  Ar  Ar150     1.0  0.59073  0.41983  0.45968  1.0000
  Ar  Ar151     1.0  0.52494  0.61002  0.43109  1.0000
  Ar  Ar152     1.0  0.53065  0.36833  0.60735  1.0000
  Ar  Ar153     1.0  0.50349  0.62290  0.45968  1.0000
  Ar  Ar154     1.0  0.41396  0.39671  0.56211  1.0000
  Ar  Ar155     1.0  0.45209  0.41164  0.42735  1.0000
  Ar  Ar156     1.0  0.53669  0.66894  0.60188  1.0000
  Ar  Ar157     1.0  0.50061  0.41554  0.43109  1.0000
  Ar  Ar158     1.0  0.56927  0.43270  0.69312  1.0000
  Ar  Ar159     1.0  0.64171  0.43542  0.59069  1.0000
  Ar  Ar160     1.0  0.67459  0.55323  0.56211  1.0000
  Ar  Ar161     1.0  0.49061  0.60144  0.69312  1.0000
  Ar  Ar162     1.0  0.45628  0.59285  0.43109  1.0000
  Ar  Ar163     1.0  0.57342  0.54617  0.39505  1.0000
  Ar  Ar164     1.0  0.55884  0.58953  0.39551  1.0000
  Ar  Ar165     1.0  0.65607  0.46740  0.49374  1.0000
  Ar  Ar166     1.0  0.62883  0.41396  0.56211  1.0000
  Ar  Ar167     1.0  0.36948  0.55815  0.49374  1.0000
  Ar  Ar168     1.0  0.57346  0.61391  0.42735  1.0000
  Ar  Ar169     1.0  0.64171  0.43542  0.53352  1.0000
  Ar  Ar170     1.0  0.38979  0.48203  0.63594  1.0000
  Ar  Ar171     1.0  0.62290  0.52207  0.45968  1.0000
  Ar  Ar172     1.0  0.56498  0.37691  0.60735  1.0000
  Ar  Ar173     1.0  0.38624  0.41818  0.52233  1.0000
  Ar  Ar174     1.0  0.56868  0.65459  0.56211  1.0000
  Ar  Ar175     1.0  0.56498  0.37691  0.51686  1.0000
  Ar  Ar176     1.0  0.35096  0.47233  0.56211  1.0000
  Ar  Ar177     1.0  0.62290  0.52207  0.66453  1.0000
  Ar  Ar178     1.0  0.46916  0.61432  0.45968  1.0000
  Ar  Ar179     1.0  0.58953  0.46673  0.39551  1.0000
  Ar  Ar180     1.0  0.49990  0.49132  0.73390  1.0000
  Ar  Ar181     1.0  0.60144  0.53494  0.69312  1.0000
  Ar  Ar182     1.0  0.43380  0.66456  0.56211  1.0000
  Ar  Ar183     1.0  0.40769  0.40531  0.49374  1.0000
  Ar  Ar184     1.0  0.63932  0.60737  0.60188  1.0000
  Ar  Ar185     1.0  0.55323  0.35096  0.56211  1.0000
  Ar  Ar186     1.0  0.39837  0.44770  0.63594  1.0000
  Ar  Ar187     1.0  0.57785  0.39837  0.48827  1.0000
  Ar  Ar188     1.0  0.37691  0.46057  0.51686  1.0000
  Ar  Ar189     1.0  0.63576  0.54352  0.48827  1.0000
  Ar  Ar190     1.0  0.61391  0.45209  0.42735  1.0000
  Ar  Ar191     1.0  0.39837  0.44770  0.48827  1.0000
  Ar  Ar192     1.0  0.64435  0.50919  0.63594  1.0000
  Ar  Ar193     1.0  0.39671  0.61159  0.56211  1.0000
  Ar  Ar194     1.0  0.38774  0.58780  0.45983  1.0000
  Ar  Ar195     1.0  0.41164  0.57346  0.42735  1.0000
  Ar  Ar196     1.0  0.59073  0.41983  0.66453  1.0000
  Ar  Ar197     1.0  0.63782  0.43776  0.66438  1.0000
  Ar  Ar198     1.0  0.50349  0.62290  0.66453  1.0000
  Ar  Ar199     1.0  0.66894  0.48886  0.60188  1.0000
  Ar  Ar200     1.0  0.54352  0.38979  0.48827  1.0000
  Ar  Ar201     1.0  0.39408  0.53781  0.66453  1.0000
  Ar  Ar202     1.0  0.43542  0.38385  0.53352  1.0000
  Ar  Ar203     1.0  0.38121  0.51636  0.48827  1.0000
  Ar  Ar204     1.0  0.36833  0.49490  0.51686  1.0000
  Ar  Ar205     1.0  0.68387  0.51452  0.56211  1.0000
  Ar  Ar206     1.0  0.58953  0.46673  0.72871  1.0000
  Ar  Ar207     1.0  0.43602  0.55883  0.39551  1.0000
  Ar  Ar208     1.0  0.57342  0.54617  0.72917  1.0000
  Ar  Ar209     1.0  0.40531  0.61786  0.49374  1.0000
  Ar  Ar210     1.0  0.41124  0.46916  0.66453  1.0000
  Ar  Ar211     1.0  0.46673  0.43602  0.72871  1.0000
  Ar  Ar212     1.0  0.44354  0.51371  0.72917  1.0000
  Ar  Ar213     1.0  0.49490  0.65722  0.60735  1.0000
  Ar  Ar214     1.0  0.44770  0.62718  0.63594  1.0000
  Ar  Ar215     1.0  0.46740  0.36948  0.49374  1.0000
  Ar  Ar216     1.0  0.42412  0.49061  0.69312  1.0000
  Ar  Ar217     1.0  0.38121  0.51636  0.63594  1.0000
  Ar  Ar218     1.0  0.61391  0.45209  0.69686  1.0000
  Ar  Ar219     1.0  0.64864  0.56498  0.51686  1.0000
  Ar  Ar220     1.0  0.43602  0.55884  0.72871  1.0000
  Ar  Ar221     1.0  0.38385  0.59013  0.59069  1.0000
  Ar  Ar222     1.0  0.36833  0.49490  0.60735  1.0000
  Ar  Ar223     1.0  0.46057  0.64864  0.51686  1.0000
  Ar  Ar224     1.0  0.53781  0.63147  0.45968  1.0000
  Ar  Ar225     1.0  0.51104  0.68387  0.56211  1.0000
  Ar  Ar226     1.0  0.45213  0.47938  0.72917  1.0000
  Ar  Ar227     1.0  0.40266  0.50349  0.45968  1.0000
  Ar  Ar228     1.0  0.54617  0.45213  0.39505  1.0000
  Ar  Ar229     1.0  0.43483  0.60573  0.66453  1.0000
  Ar  Ar230     1.0  0.63932  0.60737  0.52232  1.0000
  Ar  Ar231     1.0  0.45213  0.47938  0.39505  1.0000
  Ar  Ar232     1.0  0.64435  0.50919  0.48827  1.0000
  Ar  Ar233     1.0  0.49490  0.65722  0.51686  1.0000
  Ar  Ar234     1.0  0.58779  0.63782  0.45983  1.0000
  Ar  Ar235     1.0  0.35661  0.53669  0.60188  1.0000
  Ar  Ar236     1.0  0.44770  0.62718  0.48827  1.0000
  Ar  Ar237     1.0  0.65722  0.53065  0.60735  1.0000
  Ar  Ar238     1.0  0.53423  0.49990  0.73390  1.0000
  Ar  Ar239     1.0  0.52565  0.53423  0.73390  1.0000
  Ar  Ar240     1.0  0.60737  0.38624  0.60188  1.0000
  Ar  Ar241     1.0  0.59013  0.64171  0.53352  1.0000
  Ar  Ar242     1.0  0.41124  0.46916  0.45968  1.0000
  Ar  Ar243     1.0  0.51636  0.64435  0.48827  1.0000
  Ar  Ar244     1.0  0.41818  0.63932  0.60189  1.0000
  Ar  Ar245     1.0  0.39408  0.53781  0.45968  1.0000
  Ar  Ar246     1.0  0.56927  0.43270  0.43109  1.0000
  Ar  Ar247     1.0  0.55815  0.65607  0.49374  1.0000
  Ar  Ar248     1.0  0.51636  0.64435  0.63594  1.0000
  Ar  Ar249     1.0  0.43542  0.38385  0.59069  1.0000
  Ar  Ar250     1.0  0.62024  0.40769  0.63048  1.0000
  Ar  Ar251     1.0  0.48774  0.39408  0.66453  1.0000
  Ar  Ar252     1.0  0.64864  0.56498  0.60735  1.0000
  Ar  Ar253     1.0  0.41554  0.52494  0.69312  1.0000
  Ar  Ar254     1.0  0.48203  0.63576  0.48827  1.0000
  Ar  Ar255     1.0  0.53494  0.42412  0.43109  1.0000
  Ar  Ar256     1.0  0.55815  0.65607  0.63048  1.0000
  Ar  Ar257     1.0  0.62718  0.57785  0.48827  1.0000
  Ar  Ar258     1.0  0.41983  0.43483  0.66453  1.0000
  Ar  Ar259     1.0  0.65607  0.46740  0.63048  1.0000
  Ar  Ar260     1.0  0.43270  0.45628  0.43109  1.0000
  Ar  Ar261     1.0  0.46673  0.43602  0.39551  1.0000
  Ar  Ar262     1.0  0.61786  0.62024  0.63047  1.0000
  Ar  Ar263     1.0  0.54617  0.45213  0.72917  1.0000
  Ar  Ar264     1.0  0.66456  0.59176  0.56211  1.0000
  Ar  Ar265     1.0  0.58200  0.51185  0.72917  1.0000
  Ar  Ar266     1.0  0.61159  0.62883  0.56211  1.0000
  Ar  Ar267     1.0  0.51185  0.44354  0.72917  1.0000
  Ar  Ar268     1.0  0.53065  0.36833  0.51686  1.0000
  Ar  Ar269     1.0  0.40266  0.50349  0.66453  1.0000
  Ar  Ar270     1.0  0.49061  0.60144  0.43109  1.0000
  Ar  Ar271     1.0  0.58200  0.51185  0.39505  1.0000
  Ar  Ar272     1.0  0.41164  0.57346  0.69686  1.0000
  Ar  Ar273     1.0  0.47938  0.57342  0.72917  1.0000
  Ar  Ar274     1.0  0.36948  0.55815  0.63047  1.0000
  Ar  Ar275     1.0  0.57346  0.61391  0.69686  1.0000
  Ar  Ar276     1.0  0.49132  0.52565  0.73390  1.0000
  Ar  Ar277     1.0  0.38624  0.41818  0.60188  1.0000
  Ar  Ar278     1.0  0.51452  0.34169  0.56211  1.0000
  Ar  Ar279     1.0  0.63147  0.48774  0.66453  1.0000
  Ar  Ar280     1.0  0.62718  0.57785  0.63594  1.0000
  Ar  Ar281     1.0  0.53781  0.63147  0.66453  1.0000
  Ar  Ar282     1.0  0.37097  0.56868  0.56211  1.0000
  Ar  Ar283     1.0  0.45209  0.41164  0.69686  1.0000
  Ar  Ar284     1.0  0.59176  0.36099  0.56211  1.0000
  Ar  Ar285     1.0  0.63576  0.54352  0.63594  1.0000
  Ar  Ar286     1.0  0.48886  0.35661  0.52233  1.0000
  Ar  Ar287     1.0  0.59013  0.64171  0.59069  1.0000
  Ar  Ar288     1.0  0.59285  0.56927  0.69312  1.0000
  Ar  Ar289     1.0  0.58779  0.63782  0.66438  1.0000
  Ar  Ar290     1.0  0.57785  0.39837  0.63594  1.0000
  Ar  Ar291     1.0  0.47232  0.67459  0.56211  1.0000
  Ar  Ar292     1.0  0.60573  0.59073  0.66453  1.0000
  Ar  Ar293     1.0  0.61431  0.55640  0.66453  1.0000
  Ar  Ar294     1.0  0.35661  0.53669  0.52232  1.0000
  Ar  Ar295     1.0  0.43483  0.60573  0.45968  1.0000
  Ar  Ar296     1.0  0.60573  0.59073  0.45968  1.0000
  Ar  Ar297     1.0  0.43775  0.38774  0.45983  1.0000
  Ar  Ar298     1.0  0.61002  0.50061  0.69312  1.0000
  Ar  Ar299     1.0  0.50061  0.41554  0.69312  1.0000
  Ar  Ar300     1.0  0.51371  0.58200  0.39505  1.0000
  Ar  Ar301     1.0  0.60144  0.53494  0.43109  1.0000
  Ar  Ar302     1.0  0.54352  0.38979  0.63594  1.0000
  Ar  Ar303     1.0  0.61432  0.55640  0.45968  1.0000
  Ar  Ar304     1.0  0.37691  0.46057  0.60735  1.0000
  Ar  Ar305     1.0  0.50919  0.38121  0.63594  1.0000
  Ar  Ar306     1.0  0.34169  0.51104  0.56211  1.0000
  Ar  Ar307     1.0  0.47938  0.57342  0.39505  1.0000
  Ar  Ar308     1.0  0.52494  0.61002  0.69312  1.0000
  Ar  Ar309     1.0  0.36099  0.43380  0.56211  1.0000
  Ar  Ar310     1.0  0.41818  0.63932  0.52232  1.0000
  Ar  Ar311     1.0  0.61002  0.50061  0.43109  1.0000
  Ar  Ar312     1.0  0.45687  0.37097  0.56211  1.0000
  Ar  Ar313     1.0  0.48774  0.39408  0.45968  1.0000
  Ar  Ar314     1.0  0.55884  0.58953  0.72871  1.0000
  Ar  Ar315     1.0  0.51185  0.44355  0.39505  1.0000
  Ar  Ar316     1.0  0.59285  0.56927  0.43109  1.0000
  Ar  Ar317     1.0  0.48886  0.35661  0.60188  1.0000
  Ar  Ar318     1.0  0.40531  0.61786  0.63047  1.0000
  Ar  Ar319     1.0  0.55640  0.41124  0.66453  1.0000
  Ar  Ar320     1.0  0.42412  0.49061  0.43109  1.0000
  Ar  Ar321     1.0  0.51371  0.58200  0.72917  1.0000
  Ar  Ar322     1.0  0.53494  0.42412  0.69312  1.0000
  Ar  Ar323     1.0  0.61787  0.62024  0.49374  1.0000
  Ar  Ar324     1.0  0.49990  0.49132  0.39032  1.0000
  Ar  Ar325     1.0  0.65722  0.53065  0.51686  1.0000
  Ar  Ar326     1.0  0.63147  0.48774  0.45968  1.0000
  Ar  Ar327     1.0  0.65459  0.45687  0.56211  1.0000
  Ar  Ar328     1.0  0.53669  0.66894  0.52233  1.0000
  Ar  Ar329     1.0  0.43270  0.45628  0.69312  1.0000
  Ar  Ar330     1.0  0.41983  0.43483  0.45968  1.0000
  Ar  Ar331     1.0  0.52207  0.40266  0.66453  1.0000
  Ar  Ar332     1.0  0.48203  0.63576  0.63594  1.0000
  Ar  Ar333     1.0  0.53423  0.49990  0.39032  1.0000
  Ar  Ar334     1.0  0.40769  0.40531  0.63048  1.0000
  Ar  Ar335     1.0  0.55640  0.41124  0.45968  1.0000
  Ar  Ar336     1.0  0.38385  0.59013  0.53352  1.0000
  Ar  Ar337     1.0  0.43775  0.38774  0.66438  1.0000
  Ar  Ar338     1.0  0.46740  0.36948  0.63047  1.0000
  Ar  Ar339     1.0  0.49132  0.52565  0.39032  1.0000
  Ar  Ar340     1.0  0.60737  0.38624  0.52233  1.0000
  Ar  Ar341     1.0  0.63782  0.43776  0.45983  1.0000
  Ar  Ar342     1.0  0.52565  0.53423  0.39032  1.0000
  Ar  Ar343     1.0  0.38774  0.58779  0.66438  1.0000
  Ar  Ar344     1.0  0.38979  0.48203  0.48827  1.0000
  Ar  Ar345     1.0  0.66894  0.48886  0.52233  1.0000
  Ar  Ar346     1.0  0.41554  0.52494  0.43109  1.0000
  Ar  Ar347     1.0  0.46057  0.64864  0.60735  1.0000
  Ar  Ar348     1.0  0.46916  0.61431  0.66453  1.0000
  Ar  Ar349     1.0  0.50494  0.39820  0.47384  1.0000
  Ar  Ar350     1.0  0.51782  0.41966  0.44525  1.0000
  Ar  Ar351     1.0  0.53927  0.40678  0.47384  1.0000
  Ar  Ar352     1.0  0.60793  0.42395  0.47384  1.0000
  Ar  Ar353     1.0  0.59506  0.40249  0.50243  1.0000
  Ar  Ar354     1.0  0.43253  0.52919  0.41667  1.0000
  Ar  Ar355     1.0  0.44111  0.49486  0.41667  1.0000
  Ar  Ar356     1.0  0.52640  0.38533  0.50243  1.0000
  Ar  Ar357     1.0  0.49207  0.37675  0.50243  1.0000
  Ar  Ar358     1.0  0.47340  0.59731  0.67896  1.0000
  Ar  Ar359     1.0  0.46053  0.57586  0.70755  1.0000
  Ar  Ar360     1.0  0.43908  0.58873  0.67896  1.0000
  Ar  Ar361     1.0  0.57361  0.41537  0.47384  1.0000
  Ar  Ar362     1.0  0.58648  0.43682  0.44525  1.0000
  Ar  Ar363     1.0  0.50774  0.60590  0.44525  1.0000
  Ar  Ar364     1.0  0.52919  0.59302  0.41666  1.0000
  Ar  Ar365     1.0  0.54206  0.61448  0.44525  1.0000
  Ar  Ar366     1.0  0.54786  0.37245  0.59319  1.0000
  Ar  Ar367     1.0  0.51353  0.36387  0.59319  1.0000
  Ar  Ar368     1.0  0.52640  0.38533  0.62178  1.0000
  Ar  Ar369     1.0  0.48628  0.61877  0.47384  1.0000
  Ar  Ar370     1.0  0.52061  0.62735  0.47384  1.0000
  Ar  Ar371     1.0  0.48349  0.41108  0.44525  1.0000
  Ar  Ar372     1.0  0.43682  0.43908  0.44525  1.0000
  Ar  Ar373     1.0  0.51203  0.66168  0.59320  1.0000
  Ar  Ar374     1.0  0.53348  0.64881  0.62178  1.0000
  Ar  Ar375     1.0  0.49636  0.43253  0.41667  1.0000
  Ar  Ar376     1.0  0.58648  0.43682  0.67896  1.0000
  Ar  Ar377     1.0  0.56502  0.44970  0.70755  1.0000
  Ar  Ar378     1.0  0.55215  0.42824  0.67896  1.0000
  Ar  Ar379     1.0  0.65310  0.54786  0.53102  1.0000
  Ar  Ar380     1.0  0.65310  0.54786  0.59319  1.0000
  Ar  Ar381     1.0  0.50774  0.60590  0.67896  1.0000
  Ar  Ar382     1.0  0.49486  0.58444  0.70755  1.0000
  Ar  Ar383     1.0  0.47340  0.59731  0.44525  1.0000
  Ar  Ar384     1.0  0.43908  0.58873  0.44525  1.0000
  Ar  Ar385     1.0  0.46053  0.57586  0.41667  1.0000
  Ar  Ar386     1.0  0.57586  0.56502  0.41667  1.0000
  Ar  Ar387     1.0  0.58444  0.53069  0.41666  1.0000
  Ar  Ar388     1.0  0.64881  0.49207  0.50243  1.0000
  Ar  Ar389     1.0  0.63593  0.47062  0.47384  1.0000
  Ar  Ar390     1.0  0.38962  0.55494  0.47384  1.0000
  Ar  Ar391     1.0  0.37675  0.53348  0.50243  1.0000
  Ar  Ar392     1.0  0.58873  0.58648  0.44525  1.0000
  Ar  Ar393     1.0  0.39391  0.46482  0.62178  1.0000
  Ar  Ar394     1.0  0.40678  0.48628  0.65037  1.0000
  Ar  Ar395     1.0  0.38533  0.49915  0.62178  1.0000
  Ar  Ar396     1.0  0.61877  0.53927  0.47384  1.0000
  Ar  Ar397     1.0  0.62735  0.50494  0.47384  1.0000
  Ar  Ar398     1.0  0.60590  0.51782  0.44525  1.0000
  Ar  Ar399     1.0  0.58219  0.38104  0.59320  1.0000
  Ar  Ar400     1.0  0.56073  0.39391  0.62178  1.0000
  Ar  Ar401     1.0  0.40249  0.43049  0.50243  1.0000
  Ar  Ar402     1.0  0.38104  0.44336  0.53102  1.0000
  Ar  Ar403     1.0  0.54786  0.37245  0.53102  1.0000
  Ar  Ar404     1.0  0.56073  0.39391  0.50243  1.0000
  Ar  Ar405     1.0  0.58219  0.38104  0.53102  1.0000
  Ar  Ar406     1.0  0.37245  0.47770  0.53102  1.0000
  Ar  Ar407     1.0  0.37245  0.47770  0.59319  1.0000
  Ar  Ar408     1.0  0.60590  0.51782  0.67896  1.0000
  Ar  Ar409     1.0  0.62735  0.50494  0.65037  1.0000
  Ar  Ar410     1.0  0.61877  0.53927  0.65037  1.0000
  Ar  Ar411     1.0  0.45195  0.61019  0.47384  1.0000
  Ar  Ar412     1.0  0.56502  0.44970  0.41666  1.0000
  Ar  Ar413     1.0  0.59302  0.49636  0.41666  1.0000
  Ar  Ar414     1.0  0.58444  0.53069  0.70755  1.0000
  Ar  Ar415     1.0  0.59731  0.55215  0.67896  1.0000
  Ar  Ar416     1.0  0.44337  0.64452  0.53102  1.0000
  Ar  Ar417     1.0  0.44337  0.64452  0.59319  1.0000
  Ar  Ar418     1.0  0.42395  0.41762  0.47384  1.0000
  Ar  Ar419     1.0  0.64452  0.58219  0.59319  1.0000
  Ar  Ar420     1.0  0.62306  0.59506  0.62178  1.0000
  Ar  Ar421     1.0  0.41537  0.45195  0.65037  1.0000
  Ar  Ar422     1.0  0.40249  0.43049  0.62178  1.0000
  Ar  Ar423     1.0  0.39391  0.46482  0.50243  1.0000
  Ar  Ar424     1.0  0.63164  0.56073  0.50243  1.0000
  Ar  Ar425     1.0  0.64022  0.52640  0.50243  1.0000
  Ar  Ar426     1.0  0.61448  0.48349  0.44525  1.0000
  Ar  Ar427     1.0  0.41537  0.45195  0.47384  1.0000
  Ar  Ar428     1.0  0.64881  0.49207  0.62178  1.0000
  Ar  Ar429     1.0  0.64022  0.52640  0.62178  1.0000
  Ar  Ar430     1.0  0.41762  0.60160  0.47384  1.0000
  Ar  Ar431     1.0  0.41108  0.54206  0.44525  1.0000
  Ar  Ar432     1.0  0.60793  0.42395  0.65037  1.0000
  Ar  Ar433     1.0  0.57361  0.41537  0.65037  1.0000
  Ar  Ar434     1.0  0.63593  0.47062  0.65037  1.0000
  Ar  Ar435     1.0  0.52061  0.62735  0.65037  1.0000
  Ar  Ar436     1.0  0.48628  0.61877  0.65037  1.0000
  Ar  Ar437     1.0  0.66168  0.51353  0.59320  1.0000
  Ar  Ar438     1.0  0.39820  0.52061  0.65037  1.0000
  Ar  Ar439     1.0  0.41108  0.54206  0.67896  1.0000
  Ar  Ar440     1.0  0.38962  0.55494  0.65037  1.0000
  Ar  Ar441     1.0  0.38533  0.49915  0.50243  1.0000
  Ar  Ar442     1.0  0.39820  0.52061  0.47384  1.0000
  Ar  Ar443     1.0  0.36387  0.51203  0.53102  1.0000
  Ar  Ar444     1.0  0.66168  0.51353  0.53102  1.0000
  Ar  Ar445     1.0  0.59302  0.49636  0.70755  1.0000
  Ar  Ar446     1.0  0.57586  0.56502  0.70755  1.0000
  Ar  Ar447     1.0  0.43049  0.62306  0.50243  1.0000
  Ar  Ar448     1.0  0.42824  0.47341  0.67896  1.0000
  Ar  Ar449     1.0  0.44970  0.46053  0.70755  1.0000
  Ar  Ar450     1.0  0.49637  0.43253  0.70755  1.0000
  Ar  Ar451     1.0  0.44111  0.49486  0.70755  1.0000
  Ar  Ar452     1.0  0.43253  0.52919  0.70755  1.0000
  Ar  Ar453     1.0  0.49915  0.64022  0.62178  1.0000
  Ar  Ar454     1.0  0.47770  0.65310  0.59319  1.0000
  Ar  Ar455     1.0  0.45195  0.61019  0.65037  1.0000
  Ar  Ar456     1.0  0.43049  0.62306  0.62178  1.0000
  Ar  Ar457     1.0  0.46482  0.63164  0.62178  1.0000
  Ar  Ar458     1.0  0.47061  0.38962  0.47384  1.0000
  Ar  Ar459     1.0  0.41966  0.50774  0.67896  1.0000
  Ar  Ar460     1.0  0.37675  0.53348  0.62178  1.0000
  Ar  Ar461     1.0  0.61448  0.48349  0.67896  1.0000
  Ar  Ar462     1.0  0.64452  0.58219  0.53102  1.0000
  Ar  Ar463     1.0  0.36387  0.51203  0.59319  1.0000
  Ar  Ar464     1.0  0.47770  0.65310  0.53102  1.0000
  Ar  Ar465     1.0  0.46482  0.63164  0.50243  1.0000
  Ar  Ar466     1.0  0.55493  0.63593  0.47384  1.0000
  Ar  Ar467     1.0  0.51203  0.66168  0.53102  1.0000
  Ar  Ar468     1.0  0.40678  0.48628  0.47384  1.0000
  Ar  Ar469     1.0  0.41966  0.50774  0.44525  1.0000
  Ar  Ar470     1.0  0.53069  0.44111  0.41667  1.0000
  Ar  Ar471     1.0  0.41762  0.60160  0.65037  1.0000
  Ar  Ar472     1.0  0.62306  0.59506  0.50243  1.0000
  Ar  Ar473     1.0  0.44970  0.46053  0.41666  1.0000
  Ar  Ar474     1.0  0.49915  0.64022  0.50243  1.0000
  Ar  Ar475     1.0  0.60160  0.60794  0.47384  1.0000
  Ar  Ar476     1.0  0.59506  0.40249  0.62178  1.0000
  Ar  Ar477     1.0  0.42824  0.47341  0.44525  1.0000
  Ar  Ar478     1.0  0.53348  0.64881  0.50243  1.0000
  Ar  Ar479     1.0  0.55215  0.42824  0.44525  1.0000
  Ar  Ar480     1.0  0.48349  0.41108  0.67896  1.0000
  Ar  Ar481     1.0  0.50494  0.39820  0.65037  1.0000
  Ar  Ar482     1.0  0.47061  0.38962  0.65037  1.0000
  Ar  Ar483     1.0  0.63164  0.56073  0.62178  1.0000
  Ar  Ar484     1.0  0.55493  0.63593  0.65037  1.0000
  Ar  Ar485     1.0  0.61019  0.57360  0.47384  1.0000
  Ar  Ar486     1.0  0.43682  0.43908  0.67896  1.0000
  Ar  Ar487     1.0  0.42395  0.41762  0.65037  1.0000
  Ar  Ar488     1.0  0.60160  0.60794  0.65037  1.0000
  Ar  Ar489     1.0  0.53069  0.44111  0.70755  1.0000
  Ar  Ar490     1.0  0.51353  0.36387  0.53102  1.0000
  Ar  Ar491     1.0  0.49486  0.58444  0.41666  1.0000
  Ar  Ar492     1.0  0.54206  0.61448  0.67896  1.0000
  Ar  Ar493     1.0  0.58873  0.58648  0.67896  1.0000
  Ar  Ar494     1.0  0.38104  0.44336  0.59320  1.0000
  Ar  Ar495     1.0  0.61019  0.57360  0.65037  1.0000
  Ar  Ar496     1.0  0.51782  0.41966  0.67896  1.0000
  Ar  Ar497     1.0  0.59731  0.55215  0.44525  1.0000
  Ar  Ar498     1.0  0.53927  0.40678  0.65037  1.0000
  Ar  Ar499     1.0  0.49207  0.37675  0.62178  1.0000
  Ar  Ar500     1.0  0.52919  0.59302  0.70755  1.0000
  Ar  Ar501     1.0  0.51480  0.39527  0.47675  1.0000
  Ar  Ar502     1.0  0.51051  0.41243  0.44816  1.0000
  Ar  Ar503     1.0  0.53196  0.39956  0.47675  1.0000
  Ar  Ar504     1.0  0.52767  0.41672  0.44816  1.0000
  Ar  Ar505     1.0  0.50407  0.40170  0.46246  1.0000
  Ar  Ar506     1.0  0.53840  0.41028  0.46246  1.0000
  Ar  Ar507     1.0  0.60361  0.41670  0.47849  1.0000
  Ar  Ar508     1.0  0.62851  0.42350  0.51409  1.0000
  Ar  Ar509     1.0  0.59717  0.40597  0.49278  1.0000
  Ar  Ar510     1.0  0.61163  0.40017  0.50990  1.0000
  Ar  Ar511     1.0  0.62667  0.42473  0.47893  1.0000
  Ar  Ar512     1.0  0.44166  0.53574  0.39878  1.0000
  Ar  Ar513     1.0  0.45008  0.49710  0.39907  1.0000
  Ar  Ar514     1.0  0.43597  0.50269  0.41664  1.0000
  Ar  Ar515     1.0  0.46799  0.51982  0.39625  1.0000
  Ar  Ar516     1.0  0.43168  0.51986  0.41664  1.0000
  Ar  Ar517     1.0  0.52552  0.38883  0.49105  1.0000
  Ar  Ar518     1.0  0.48857  0.37882  0.49278  1.0000
  Ar  Ar519     1.0  0.51909  0.37810  0.50534  1.0000
  Ar  Ar520     1.0  0.49930  0.37238  0.50708  1.0000
  Ar  Ar521     1.0  0.49763  0.39098  0.47675  1.0000
  Ar  Ar522     1.0  0.47428  0.59381  0.69034  1.0000
  Ar  Ar523     1.0  0.44786  0.57522  0.70781  1.0000
  Ar  Ar524     1.0  0.44639  0.59596  0.67605  1.0000
  Ar  Ar525     1.0  0.43569  0.58179  0.69249  1.0000
  Ar  Ar526     1.0  0.46836  0.58100  0.70758  1.0000
  Ar  Ar527     1.0  0.46355  0.60025  0.67604  1.0000
  Ar  Ar528     1.0  0.58346  0.41243  0.47675  1.0000
  Ar  Ar529     1.0  0.60059  0.43732  0.44602  1.0000
  Ar  Ar530     1.0  0.57917  0.42960  0.44816  1.0000
  Ar  Ar531     1.0  0.57273  0.41887  0.46246  1.0000
  Ar  Ar532     1.0  0.61177  0.42990  0.46180  1.0000
  Ar  Ar533     1.0  0.51505  0.61313  0.44816  1.0000
  Ar  Ar534     1.0  0.54067  0.59841  0.41641  1.0000
  Ar  Ar535     1.0  0.54831  0.60995  0.43172  1.0000
  Ar  Ar536     1.0  0.53221  0.61741  0.44816  1.0000
  Ar  Ar537     1.0  0.50861  0.60240  0.43387  1.0000
  Ar  Ar538     1.0  0.51986  0.59388  0.41664  1.0000
  Ar  Ar539     1.0  0.54698  0.37595  0.60457  1.0000
  Ar  Ar540     1.0  0.54119  0.36265  0.58442  1.0000
  Ar  Ar541     1.0  0.52244  0.35826  0.58512  1.0000
  Ar  Ar542     1.0  0.53625  0.38239  0.61887  1.0000
  Ar  Ar543     1.0  0.51909  0.37810  0.61887  1.0000
  Ar  Ar544     1.0  0.51003  0.36594  0.60284  1.0000
  Ar  Ar545     1.0  0.48716  0.61527  0.46246  1.0000
  Ar  Ar546     1.0  0.52148  0.62385  0.46246  1.0000
  Ar  Ar547     1.0  0.51076  0.63029  0.47675  1.0000
  Ar  Ar548     1.0  0.49359  0.62600  0.47675  1.0000
  Ar  Ar549     1.0  0.49788  0.60883  0.44816  1.0000
  Ar  Ar550     1.0  0.40205  0.40991  0.54268  1.0000
  Ar  Ar551     1.0  0.42685  0.39389  0.54782  1.0000
  Ar  Ar552     1.0  0.42685  0.39389  0.57640  1.0000
  Ar  Ar553     1.0  0.40205  0.40991  0.58153  1.0000
  Ar  Ar554     1.0  0.47724  0.41561  0.43172  1.0000
  Ar  Ar555     1.0  0.44376  0.43569  0.43172  1.0000
  Ar  Ar556     1.0  0.46070  0.42597  0.41516  1.0000
  Ar  Ar557     1.0  0.44660  0.40249  0.44645  1.0000
  Ar  Ar558     1.0  0.47081  0.40488  0.44602  1.0000
  Ar  Ar559     1.0  0.43732  0.42497  0.44602  1.0000
  Ar  Ar560     1.0  0.55143  0.65888  0.58153  1.0000
  Ar  Ar561     1.0  0.51552  0.65960  0.60284  1.0000
  Ar  Ar562     1.0  0.52390  0.67282  0.58142  1.0000
  Ar  Ar563     1.0  0.52625  0.65317  0.61713  1.0000
  Ar  Ar564     1.0  0.54701  0.65865  0.61431  1.0000
  Ar  Ar565     1.0  0.51694  0.42316  0.43387  1.0000
  Ar  Ar566     1.0  0.48489  0.42714  0.41641  1.0000
  Ar  Ar567     1.0  0.49334  0.40814  0.44816  1.0000
  Ar  Ar568     1.0  0.50570  0.43168  0.41664  1.0000
  Ar  Ar569     1.0  0.57917  0.42960  0.67605  1.0000
  Ar  Ar570     1.0  0.57769  0.45034  0.70781  1.0000
  Ar  Ar571     1.0  0.58986  0.44376  0.69249  1.0000
  Ar  Ar572     1.0  0.55719  0.44455  0.70758  1.0000
  Ar  Ar573     1.0  0.56200  0.42530  0.67605  1.0000
  Ar  Ar574     1.0  0.55127  0.43174  0.69034  1.0000
  Ar  Ar575     1.0  0.63166  0.42685  0.57640  1.0000
  Ar  Ar576     1.0  0.62851  0.42350  0.61012  1.0000
  Ar  Ar577     1.0  0.64601  0.45267  0.61012  1.0000
  Ar  Ar578     1.0  0.64454  0.44831  0.57640  1.0000
  Ar  Ar579     1.0  0.67514  0.53341  0.56211  1.0000
  Ar  Ar580     1.0  0.65861  0.55836  0.53980  1.0000
  Ar  Ar581     1.0  0.66290  0.54119  0.58442  1.0000
  Ar  Ar582     1.0  0.65861  0.55836  0.58442  1.0000
  Ar  Ar583     1.0  0.66575  0.57098  0.56211  1.0000
  Ar  Ar584     1.0  0.66290  0.54119  0.53980  1.0000
  Ar  Ar585     1.0  0.49788  0.60884  0.67604  1.0000
  Ar  Ar586     1.0  0.48553  0.58530  0.70758  1.0000
  Ar  Ar587     1.0  0.50861  0.60240  0.69034  1.0000
  Ar  Ar588     1.0  0.50269  0.58959  0.70758  1.0000
  Ar  Ar589     1.0  0.48072  0.60455  0.67604  1.0000
  Ar  Ar590     1.0  0.46355  0.60025  0.44816  1.0000
  Ar  Ar591     1.0  0.43569  0.58179  0.43172  1.0000
  Ar  Ar592     1.0  0.44786  0.57521  0.41641  1.0000
  Ar  Ar593     1.0  0.47428  0.59381  0.43387  1.0000
  Ar  Ar594     1.0  0.44639  0.59596  0.44816  1.0000
  Ar  Ar595     1.0  0.46836  0.58100  0.41664  1.0000
  Ar  Ar596     1.0  0.56473  0.56650  0.39877  1.0000
  Ar  Ar597     1.0  0.57547  0.52845  0.39907  1.0000
  Ar  Ar598     1.0  0.58530  0.54002  0.41664  1.0000
  Ar  Ar599     1.0  0.58100  0.55719  0.41664  1.0000
  Ar  Ar600     1.0  0.54898  0.54006  0.39625  1.0000
  Ar  Ar601     1.0  0.56486  0.59957  0.41516  1.0000
  Ar  Ar602     1.0  0.53574  0.58389  0.39877  1.0000
  Ar  Ar603     1.0  0.57521  0.57769  0.41641  1.0000
  Ar  Ar604     1.0  0.64601  0.45267  0.51409  1.0000
  Ar  Ar605     1.0  0.64674  0.48857  0.49278  1.0000
  Ar  Ar606     1.0  0.64030  0.47784  0.47849  1.0000
  Ar  Ar607     1.0  0.64406  0.45372  0.47893  1.0000
  Ar  Ar608     1.0  0.65865  0.47854  0.50990  1.0000
  Ar  Ar609     1.0  0.63166  0.42685  0.54781  1.0000
  Ar  Ar610     1.0  0.61564  0.40205  0.58153  1.0000
  Ar  Ar611     1.0  0.61564  0.40205  0.54268  1.0000
  Ar  Ar612     1.0  0.38149  0.57183  0.47893  1.0000
  Ar  Ar613     1.0  0.37882  0.53698  0.49278  1.0000
  Ar  Ar614     1.0  0.38525  0.54771  0.47849  1.0000
  Ar  Ar615     1.0  0.36690  0.54701  0.50990  1.0000
  Ar  Ar616     1.0  0.37955  0.57288  0.51409  1.0000
  Ar  Ar617     1.0  0.55474  0.62067  0.44602  1.0000
  Ar  Ar618     1.0  0.57894  0.62306  0.44645  1.0000
  Ar  Ar619     1.0  0.58823  0.60059  0.44602  1.0000
  Ar  Ar620     1.0  0.58179  0.58986  0.43172  1.0000
  Ar  Ar621     1.0  0.64454  0.44831  0.54781  1.0000
  Ar  Ar622     1.0  0.39741  0.46570  0.63316  1.0000
  Ar  Ar623     1.0  0.40385  0.47643  0.64746  1.0000
  Ar  Ar624     1.0  0.38883  0.50003  0.63316  1.0000
  Ar  Ar625     1.0  0.38239  0.48930  0.61887  1.0000
  Ar  Ar626     1.0  0.39956  0.49359  0.64746  1.0000
  Ar  Ar627     1.0  0.38668  0.47213  0.61887  1.0000
  Ar  Ar628     1.0  0.62600  0.53196  0.47675  1.0000
  Ar  Ar629     1.0  0.63029  0.51480  0.47675  1.0000
  Ar  Ar630     1.0  0.60883  0.52767  0.44816  1.0000
  Ar  Ar631     1.0  0.61527  0.53840  0.46246  1.0000
  Ar  Ar632     1.0  0.61313  0.51051  0.44816  1.0000
  Ar  Ar633     1.0  0.62385  0.50407  0.46246  1.0000
  Ar  Ar634     1.0  0.55836  0.36694  0.58442  1.0000
  Ar  Ar635     1.0  0.58430  0.38451  0.60284  1.0000
  Ar  Ar636     1.0  0.57696  0.37189  0.58512  1.0000
  Ar  Ar637     1.0  0.57058  0.39097  0.61887  1.0000
  Ar  Ar638     1.0  0.55342  0.38668  0.61887  1.0000
  Ar  Ar639     1.0  0.40017  0.41392  0.50990  1.0000
  Ar  Ar640     1.0  0.38451  0.44125  0.52137  1.0000
  Ar  Ar641     1.0  0.39524  0.43481  0.50708  1.0000
  Ar  Ar642     1.0  0.37680  0.42764  0.54280  1.0000
  Ar  Ar643     1.0  0.57724  0.64454  0.54781  1.0000
  Ar  Ar644     1.0  0.57724  0.64454  0.57640  1.0000
  Ar  Ar645     1.0  0.55143  0.65888  0.54268  1.0000
  Ar  Ar646     1.0  0.55836  0.36694  0.53980  1.0000
  Ar  Ar647     1.0  0.57058  0.39097  0.50534  1.0000
  Ar  Ar648     1.0  0.55342  0.38668  0.50534  1.0000
  Ar  Ar649     1.0  0.54698  0.37595  0.51964  1.0000
  Ar  Ar650     1.0  0.57696  0.37189  0.53909  1.0000
  Ar  Ar651     1.0  0.58430  0.38451  0.52137  1.0000
  Ar  Ar652     1.0  0.36694  0.46720  0.53980  1.0000
  Ar  Ar653     1.0  0.36265  0.48436  0.53980  1.0000
  Ar  Ar654     1.0  0.36265  0.48436  0.58442  1.0000
  Ar  Ar655     1.0  0.36694  0.46720  0.58442  1.0000
  Ar  Ar656     1.0  0.35041  0.49215  0.56211  1.0000
  Ar  Ar657     1.0  0.35980  0.45458  0.56211  1.0000
  Ar  Ar658     1.0  0.60884  0.52767  0.67605  1.0000
  Ar  Ar659     1.0  0.63029  0.51480  0.64746  1.0000
  Ar  Ar660     1.0  0.62385  0.50407  0.66175  1.0000
  Ar  Ar661     1.0  0.62600  0.53196  0.64746  1.0000
  Ar  Ar662     1.0  0.61527  0.53840  0.66175  1.0000
  Ar  Ar663     1.0  0.61313  0.51051  0.67604  1.0000
  Ar  Ar664     1.0  0.45926  0.61742  0.47675  1.0000
  Ar  Ar665     1.0  0.47643  0.62171  0.47675  1.0000
  Ar  Ar666     1.0  0.48072  0.60454  0.44816  1.0000
  Ar  Ar667     1.0  0.45283  0.60669  0.46246  1.0000
  Ar  Ar668     1.0  0.59957  0.46070  0.41516  1.0000
  Ar  Ar669     1.0  0.56650  0.46083  0.39877  1.0000
  Ar  Ar670     1.0  0.57769  0.45034  0.41641  1.0000
  Ar  Ar671     1.0  0.58389  0.48982  0.39877  1.0000
  Ar  Ar672     1.0  0.59841  0.48488  0.41641  1.0000
  Ar  Ar673     1.0  0.47657  0.48549  0.72797  1.0000
  Ar  Ar674     1.0  0.51707  0.49561  0.72909  1.0000
  Ar  Ar675     1.0  0.50574  0.46799  0.72797  1.0000
  Ar  Ar676     1.0  0.49561  0.50849  0.72909  1.0000
  Ar  Ar677     1.0  0.58530  0.54002  0.70758  1.0000
  Ar  Ar678     1.0  0.58959  0.52286  0.70758  1.0000
  Ar  Ar679     1.0  0.59381  0.55127  0.69034  1.0000
  Ar  Ar680     1.0  0.60454  0.54484  0.67605  1.0000
  Ar  Ar681     1.0  0.60240  0.51694  0.69034  1.0000
  Ar  Ar682     1.0  0.44859  0.65366  0.53909  1.0000
  Ar  Ar683     1.0  0.42765  0.64875  0.58142  1.0000
  Ar  Ar684     1.0  0.45458  0.66575  0.56211  1.0000
  Ar  Ar685     1.0  0.42765  0.64875  0.54280  1.0000
  Ar  Ar686     1.0  0.44859  0.65366  0.58512  1.0000
  Ar  Ar687     1.0  0.40597  0.42838  0.49278  1.0000
  Ar  Ar688     1.0  0.42350  0.39704  0.51409  1.0000
  Ar  Ar689     1.0  0.42473  0.39889  0.47893  1.0000
  Ar  Ar690     1.0  0.41670  0.42194  0.47849  1.0000
  Ar  Ar691     1.0  0.64104  0.58430  0.60284  1.0000
  Ar  Ar692     1.0  0.62538  0.61163  0.61431  1.0000
  Ar  Ar693     1.0  0.64875  0.59791  0.58142  1.0000
  Ar  Ar694     1.0  0.62350  0.61564  0.58153  1.0000
  Ar  Ar695     1.0  0.63031  0.59073  0.61713  1.0000
  Ar  Ar696     1.0  0.54119  0.36265  0.53980  1.0000
  Ar  Ar697     1.0  0.53341  0.35041  0.56211  1.0000
  Ar  Ar698     1.0  0.57098  0.35980  0.56211  1.0000
  Ar  Ar699     1.0  0.40814  0.45926  0.64746  1.0000
  Ar  Ar700     1.0  0.41243  0.44210  0.64746  1.0000
  Ar  Ar701     1.0  0.39524  0.43481  0.61713  1.0000
  Ar  Ar702     1.0  0.39097  0.45497  0.61887  1.0000
  Ar  Ar703     1.0  0.40597  0.42838  0.63143  1.0000
  Ar  Ar704     1.0  0.55985  0.39741  0.49105  1.0000
  Ar  Ar705     1.0  0.56629  0.40814  0.47675  1.0000
  Ar  Ar706     1.0  0.59074  0.39524  0.50708  1.0000
  Ar  Ar707     1.0  0.39097  0.45497  0.50534  1.0000
  Ar  Ar708     1.0  0.37595  0.47857  0.51964  1.0000
  Ar  Ar709     1.0  0.37189  0.44859  0.53909  1.0000
  Ar  Ar710     1.0  0.38668  0.47213  0.50534  1.0000
  Ar  Ar711     1.0  0.63887  0.55342  0.50534  1.0000
  Ar  Ar712     1.0  0.63672  0.52552  0.49105  1.0000
  Ar  Ar713     1.0  0.62814  0.55985  0.49105  1.0000
  Ar  Ar714     1.0  0.62171  0.54913  0.47675  1.0000
  Ar  Ar715     1.0  0.64316  0.53625  0.50534  1.0000
  Ar  Ar716     1.0  0.58986  0.44376  0.43172  1.0000
  Ar  Ar717     1.0  0.60995  0.47724  0.43172  1.0000
  Ar  Ar718     1.0  0.62067  0.47081  0.44602  1.0000
  Ar  Ar719     1.0  0.62306  0.44661  0.44645  1.0000
  Ar  Ar720     1.0  0.40814  0.45926  0.47675  1.0000
  Ar  Ar721     1.0  0.41243  0.44210  0.47675  1.0000
  Ar  Ar722     1.0  0.39741  0.46570  0.49105  1.0000
  Ar  Ar723     1.0  0.65317  0.49930  0.61713  1.0000
  Ar  Ar724     1.0  0.64745  0.51909  0.61887  1.0000
  Ar  Ar725     1.0  0.64674  0.48857  0.63143  1.0000
  Ar  Ar726     1.0  0.63458  0.49763  0.64746  1.0000
  Ar  Ar727     1.0  0.63672  0.52552  0.63316  1.0000
  Ar  Ar728     1.0  0.39389  0.59870  0.57640  1.0000
  Ar  Ar729     1.0  0.40991  0.62350  0.58153  1.0000
  Ar  Ar730     1.0  0.40991  0.62350  0.54268  1.0000
  Ar  Ar731     1.0  0.39389  0.59869  0.54781  1.0000
  Ar  Ar732     1.0  0.40249  0.57894  0.44645  1.0000
  Ar  Ar733     1.0  0.39889  0.60082  0.47893  1.0000
  Ar  Ar734     1.0  0.39306  0.56111  0.46181  1.0000
  Ar  Ar735     1.0  0.41379  0.59566  0.46181  1.0000
  Ar  Ar736     1.0  0.42597  0.56486  0.41516  1.0000
  Ar  Ar737     1.0  0.40488  0.55474  0.44602  1.0000
  Ar  Ar738     1.0  0.42497  0.58823  0.44602  1.0000
  Ar  Ar739     1.0  0.41561  0.54831  0.43172  1.0000
  Ar  Ar740     1.0  0.61177  0.42990  0.66240  1.0000
  Ar  Ar741     1.0  0.60059  0.43732  0.67819  1.0000
  Ar  Ar742     1.0  0.60361  0.41670  0.64572  1.0000
  Ar  Ar743     1.0  0.58346  0.41243  0.64746  1.0000
  Ar  Ar744     1.0  0.57273  0.41887  0.66175  1.0000
  Ar  Ar745     1.0  0.62306  0.44660  0.67776  1.0000
  Ar  Ar746     1.0  0.62667  0.42473  0.64528  1.0000
  Ar  Ar747     1.0  0.64406  0.45372  0.64528  1.0000
  Ar  Ar748     1.0  0.63249  0.46444  0.66240  1.0000
  Ar  Ar749     1.0  0.51076  0.63029  0.64746  1.0000
  Ar  Ar750     1.0  0.52148  0.62385  0.66175  1.0000
  Ar  Ar751     1.0  0.51505  0.61313  0.67605  1.0000
  Ar  Ar752     1.0  0.49359  0.62600  0.64746  1.0000
  Ar  Ar753     1.0  0.48716  0.61527  0.66175  1.0000
  Ar  Ar754     1.0  0.67282  0.50165  0.58142  1.0000
  Ar  Ar755     1.0  0.65960  0.51003  0.60284  1.0000
  Ar  Ar756     1.0  0.65865  0.47854  0.61431  1.0000
  Ar  Ar757     1.0  0.65888  0.47412  0.58153  1.0000
  Ar  Ar758     1.0  0.53625  0.38239  0.50534  1.0000
  Ar  Ar759     1.0  0.54913  0.40385  0.47675  1.0000
  Ar  Ar760     1.0  0.39098  0.52792  0.64746  1.0000
  Ar  Ar761     1.0  0.40814  0.53221  0.67605  1.0000
  Ar  Ar762     1.0  0.40170  0.52148  0.66175  1.0000
  Ar  Ar763     1.0  0.40488  0.55474  0.67819  1.0000
  Ar  Ar764     1.0  0.38525  0.54771  0.64572  1.0000
  Ar  Ar765     1.0  0.39306  0.56111  0.66240  1.0000
  Ar  Ar766     1.0  0.45267  0.37955  0.51409  1.0000
  Ar  Ar767     1.0  0.44831  0.38102  0.54782  1.0000
  Ar  Ar768     1.0  0.37810  0.50646  0.50534  1.0000
  Ar  Ar769     1.0  0.39527  0.51076  0.47675  1.0000
  Ar  Ar770     1.0  0.39098  0.52792  0.47675  1.0000
  Ar  Ar771     1.0  0.37238  0.52625  0.50708  1.0000
  Ar  Ar772     1.0  0.38883  0.50003  0.49105  1.0000
  Ar  Ar773     1.0  0.36594  0.51552  0.52137  1.0000
  Ar  Ar774     1.0  0.35826  0.50311  0.53910  1.0000
  Ar  Ar775     1.0  0.38239  0.48930  0.50534  1.0000
  Ar  Ar776     1.0  0.66729  0.52245  0.58512  1.0000
  Ar  Ar777     1.0  0.66729  0.52245  0.53909  1.0000
  Ar  Ar778     1.0  0.67282  0.50165  0.54280  1.0000
  Ar  Ar779     1.0  0.59958  0.46070  0.70905  1.0000
  Ar  Ar780     1.0  0.56650  0.46083  0.72544  1.0000
  Ar  Ar781     1.0  0.58389  0.48982  0.72544  1.0000
  Ar  Ar782     1.0  0.59842  0.48488  0.70781  1.0000
  Ar  Ar783     1.0  0.45905  0.56472  0.39878  1.0000
  Ar  Ar784     1.0  0.42714  0.54067  0.41641  1.0000
  Ar  Ar785     1.0  0.54898  0.54006  0.72797  1.0000
  Ar  Ar786     1.0  0.57547  0.52845  0.72515  1.0000
  Ar  Ar787     1.0  0.58100  0.55719  0.70758  1.0000
  Ar  Ar788     1.0  0.56473  0.56650  0.72544  1.0000
  Ar  Ar789     1.0  0.42838  0.61958  0.49278  1.0000
  Ar  Ar790     1.0  0.42194  0.60886  0.47849  1.0000
  Ar  Ar791     1.0  0.41392  0.62538  0.50990  1.0000
  Ar  Ar792     1.0  0.39704  0.60204  0.51409  1.0000
  Ar  Ar793     1.0  0.42101  0.48072  0.67605  1.0000
  Ar  Ar794     1.0  0.41887  0.45283  0.66175  1.0000
  Ar  Ar795     1.0  0.41028  0.48716  0.66175  1.0000
  Ar  Ar796     1.0  0.42530  0.46355  0.67605  1.0000
  Ar  Ar797     1.0  0.46083  0.45905  0.72544  1.0000
  Ar  Ar798     1.0  0.48982  0.44165  0.72544  1.0000
  Ar  Ar799     1.0  0.46070  0.42597  0.70905  1.0000
  Ar  Ar800     1.0  0.48489  0.42714  0.70781  1.0000
  Ar  Ar801     1.0  0.45034  0.44786  0.70781  1.0000
  Ar  Ar802     1.0  0.43597  0.50269  0.70758  1.0000
  Ar  Ar803     1.0  0.44165  0.53574  0.72544  1.0000
  Ar  Ar804     1.0  0.45008  0.49710  0.72515  1.0000
  Ar  Ar805     1.0  0.43168  0.51986  0.70758  1.0000
  Ar  Ar806     1.0  0.46799  0.51982  0.72797  1.0000
  Ar  Ar807     1.0  0.50311  0.66729  0.58512  1.0000
  Ar  Ar808     1.0  0.50646  0.64745  0.61887  1.0000
  Ar  Ar809     1.0  0.48436  0.66290  0.58442  1.0000
  Ar  Ar810     1.0  0.48930  0.64316  0.61887  1.0000
  Ar  Ar811     1.0  0.47857  0.64960  0.60457  1.0000
  Ar  Ar812     1.0  0.44210  0.61312  0.64746  1.0000
  Ar  Ar813     1.0  0.43481  0.63031  0.61713  1.0000
  Ar  Ar814     1.0  0.42838  0.61958  0.63143  1.0000
  Ar  Ar815     1.0  0.46570  0.62814  0.63316  1.0000
  Ar  Ar816     1.0  0.45497  0.63458  0.61887  1.0000
  Ar  Ar817     1.0  0.45926  0.61742  0.64746  1.0000
  Ar  Ar818     1.0  0.47854  0.36690  0.50990  1.0000
  Ar  Ar819     1.0  0.45372  0.38149  0.47893  1.0000
  Ar  Ar820     1.0  0.47784  0.38525  0.47849  1.0000
  Ar  Ar821     1.0  0.44026  0.48553  0.70758  1.0000
  Ar  Ar822     1.0  0.42316  0.50861  0.69034  1.0000
  Ar  Ar823     1.0  0.41672  0.49788  0.67605  1.0000
  Ar  Ar824     1.0  0.43174  0.47428  0.69034  1.0000
  Ar  Ar825     1.0  0.37810  0.50646  0.61887  1.0000
  Ar  Ar826     1.0  0.37238  0.52625  0.61713  1.0000
  Ar  Ar827     1.0  0.39527  0.51076  0.64746  1.0000
  Ar  Ar828     1.0  0.37882  0.53698  0.63143  1.0000
  Ar  Ar829     1.0  0.62067  0.47081  0.67819  1.0000
  Ar  Ar830     1.0  0.60995  0.47724  0.69249  1.0000
  Ar  Ar831     1.0  0.64104  0.58430  0.52137  1.0000
  Ar  Ar832     1.0  0.63458  0.57058  0.50534  1.0000
  Ar  Ar833     1.0  0.65366  0.57696  0.53909  1.0000
  Ar  Ar834     1.0  0.64960  0.54698  0.51964  1.0000
  Ar  Ar835     1.0  0.42714  0.54067  0.70781  1.0000
  Ar  Ar836     1.0  0.42597  0.56486  0.70905  1.0000
  Ar  Ar837     1.0  0.45905  0.56473  0.72544  1.0000
  Ar  Ar838     1.0  0.37955  0.57288  0.61012  1.0000
  Ar  Ar839     1.0  0.38101  0.57724  0.57640  1.0000
  Ar  Ar840     1.0  0.39704  0.60204  0.61012  1.0000
  Ar  Ar841     1.0  0.36594  0.51553  0.60284  1.0000
  Ar  Ar842     1.0  0.37595  0.47857  0.60457  1.0000
  Ar  Ar843     1.0  0.35826  0.50311  0.58512  1.0000
  Ar  Ar844     1.0  0.47857  0.64960  0.51964  1.0000
  Ar  Ar845     1.0  0.45497  0.63458  0.50534  1.0000
  Ar  Ar846     1.0  0.47213  0.63887  0.50534  1.0000
  Ar  Ar847     1.0  0.46720  0.65861  0.53980  1.0000
  Ar  Ar848     1.0  0.44125  0.64104  0.52137  1.0000
  Ar  Ar849     1.0  0.56111  0.63249  0.46181  1.0000
  Ar  Ar850     1.0  0.52792  0.63458  0.47675  1.0000
  Ar  Ar851     1.0  0.54771  0.64030  0.47849  1.0000
  Ar  Ar852     1.0  0.50311  0.66729  0.53909  1.0000
  Ar  Ar853     1.0  0.49215  0.67514  0.56211  1.0000
  Ar  Ar854     1.0  0.52390  0.67282  0.54280  1.0000
  Ar  Ar855     1.0  0.44455  0.46836  0.70758  1.0000
  Ar  Ar856     1.0  0.41028  0.48716  0.46246  1.0000
  Ar  Ar857     1.0  0.40170  0.52148  0.46246  1.0000
  Ar  Ar858     1.0  0.41672  0.49788  0.44816  1.0000
  Ar  Ar859     1.0  0.39956  0.49359  0.47675  1.0000
  Ar  Ar860     1.0  0.41243  0.51505  0.44816  1.0000
  Ar  Ar861     1.0  0.55719  0.44455  0.41664  1.0000
  Ar  Ar862     1.0  0.54002  0.44026  0.41664  1.0000
  Ar  Ar863     1.0  0.52845  0.45008  0.39907  1.0000
  Ar  Ar864     1.0  0.54006  0.47657  0.39625  1.0000
  Ar  Ar865     1.0  0.42497  0.58823  0.67819  1.0000
  Ar  Ar866     1.0  0.42194  0.60886  0.64572  1.0000
  Ar  Ar867     1.0  0.41379  0.59566  0.66240  1.0000
  Ar  Ar868     1.0  0.45283  0.60669  0.66175  1.0000
  Ar  Ar869     1.0  0.63031  0.59073  0.50708  1.0000
  Ar  Ar870     1.0  0.64875  0.59791  0.54280  1.0000
  Ar  Ar871     1.0  0.62350  0.61564  0.54268  1.0000
  Ar  Ar872     1.0  0.62538  0.61163  0.50990  1.0000
  Ar  Ar873     1.0  0.44455  0.46836  0.41664  1.0000
  Ar  Ar874     1.0  0.46083  0.45905  0.39877  1.0000
  Ar  Ar875     1.0  0.44026  0.48553  0.41664  1.0000
  Ar  Ar876     1.0  0.47657  0.48549  0.39625  1.0000
  Ar  Ar877     1.0  0.64745  0.51909  0.50534  1.0000
  Ar  Ar878     1.0  0.63458  0.49763  0.47675  1.0000
  Ar  Ar879     1.0  0.65317  0.49930  0.50708  1.0000
  Ar  Ar880     1.0  0.50646  0.64745  0.50534  1.0000
  Ar  Ar881     1.0  0.48930  0.64316  0.50534  1.0000
  Ar  Ar882     1.0  0.48436  0.66290  0.53980  1.0000
  Ar  Ar883     1.0  0.51552  0.65961  0.52137  1.0000
  Ar  Ar884     1.0  0.57183  0.64406  0.47893  1.0000
  Ar  Ar885     1.0  0.59566  0.61177  0.46181  1.0000
  Ar  Ar886     1.0  0.60082  0.62667  0.47893  1.0000
  Ar  Ar887     1.0  0.36690  0.54701  0.61431  1.0000
  Ar  Ar888     1.0  0.36667  0.55143  0.58153  1.0000
  Ar  Ar889     1.0  0.35274  0.52390  0.58142  1.0000
  Ar  Ar890     1.0  0.46570  0.62814  0.49105  1.0000
  Ar  Ar891     1.0  0.44210  0.61312  0.47675  1.0000
  Ar  Ar892     1.0  0.43481  0.63031  0.50708  1.0000
  Ar  Ar893     1.0  0.64960  0.54698  0.60457  1.0000
  Ar  Ar894     1.0  0.64316  0.53625  0.61887  1.0000
  Ar  Ar895     1.0  0.52994  0.51707  0.72909  1.0000
  Ar  Ar896     1.0  0.54006  0.47657  0.72797  1.0000
  Ar  Ar897     1.0  0.55756  0.50574  0.72797  1.0000
  Ar  Ar898     1.0  0.50849  0.52994  0.72909  1.0000
  Ar  Ar899     1.0  0.51982  0.55756  0.72797  1.0000
  Ar  Ar900     1.0  0.61163  0.40017  0.61431  1.0000
  Ar  Ar901     1.0  0.59791  0.37680  0.58142  1.0000
  Ar  Ar902     1.0  0.59074  0.39524  0.61713  1.0000
  Ar  Ar903     1.0  0.57288  0.64601  0.51409  1.0000
  Ar  Ar904     1.0  0.59870  0.63166  0.54781  1.0000
  Ar  Ar905     1.0  0.60205  0.62851  0.51409  1.0000
  Ar  Ar906     1.0  0.42530  0.46355  0.44816  1.0000
  Ar  Ar907     1.0  0.42101  0.48072  0.44816  1.0000
  Ar  Ar908     1.0  0.41887  0.45283  0.46246  1.0000
  Ar  Ar909     1.0  0.40385  0.47643  0.47675  1.0000
  Ar  Ar910     1.0  0.53698  0.64674  0.49278  1.0000
  Ar  Ar911     1.0  0.50003  0.63672  0.49105  1.0000
  Ar  Ar912     1.0  0.52625  0.65317  0.50708  1.0000
  Ar  Ar913     1.0  0.41392  0.62538  0.61431  1.0000
  Ar  Ar914     1.0  0.44125  0.64104  0.60284  1.0000
  Ar  Ar915     1.0  0.40814  0.53221  0.44816  1.0000
  Ar  Ar916     1.0  0.55127  0.43174  0.43387  1.0000
  Ar  Ar917     1.0  0.56200  0.42530  0.44816  1.0000
  Ar  Ar918     1.0  0.54701  0.65865  0.50990  1.0000
  Ar  Ar919     1.0  0.53698  0.64674  0.63143  1.0000
  Ar  Ar920     1.0  0.52792  0.63458  0.64746  1.0000
  Ar  Ar921     1.0  0.50003  0.63672  0.63316  1.0000
  Ar  Ar922     1.0  0.44831  0.38102  0.57640  1.0000
  Ar  Ar923     1.0  0.42350  0.39704  0.61012  1.0000
  Ar  Ar924     1.0  0.45267  0.37955  0.61012  1.0000
  Ar  Ar925     1.0  0.59717  0.40597  0.63143  1.0000
  Ar  Ar926     1.0  0.47081  0.40488  0.67819  1.0000
  Ar  Ar927     1.0  0.49334  0.40814  0.67605  1.0000
  Ar  Ar928     1.0  0.49763  0.39098  0.64746  1.0000
  Ar  Ar929     1.0  0.50407  0.40170  0.66175  1.0000
  Ar  Ar930     1.0  0.46444  0.39306  0.66240  1.0000
  Ar  Ar931     1.0  0.47784  0.38525  0.64572  1.0000
  Ar  Ar932     1.0  0.65366  0.57696  0.58512  1.0000
  Ar  Ar933     1.0  0.63458  0.57058  0.61887  1.0000
  Ar  Ar934     1.0  0.63887  0.55342  0.61887  1.0000
  Ar  Ar935     1.0  0.41243  0.51505  0.67605  1.0000
  Ar  Ar936     1.0  0.41561  0.54831  0.69249  1.0000
  Ar  Ar937     1.0  0.52286  0.43597  0.41664  1.0000
  Ar  Ar938     1.0  0.54484  0.42101  0.44816  1.0000
  Ar  Ar939     1.0  0.54771  0.64030  0.64572  1.0000
  Ar  Ar940     1.0  0.57288  0.64601  0.61012  1.0000
  Ar  Ar941     1.0  0.57183  0.64406  0.64528  1.0000
  Ar  Ar942     1.0  0.61312  0.58346  0.47675  1.0000
  Ar  Ar943     1.0  0.61742  0.56629  0.47675  1.0000
  Ar  Ar944     1.0  0.61958  0.59717  0.49278  1.0000
  Ar  Ar945     1.0  0.43732  0.42497  0.67819  1.0000
  Ar  Ar946     1.0  0.42960  0.44639  0.67605  1.0000
  Ar  Ar947     1.0  0.41670  0.42194  0.64572  1.0000
  Ar  Ar948     1.0  0.42990  0.41379  0.66240  1.0000
  Ar  Ar949     1.0  0.64030  0.47784  0.64572  1.0000
  Ar  Ar950     1.0  0.45034  0.44786  0.41641  1.0000
  Ar  Ar951     1.0  0.43174  0.47428  0.43387  1.0000
  Ar  Ar952     1.0  0.42960  0.44639  0.44816  1.0000
  Ar  Ar953     1.0  0.48982  0.44166  0.39878  1.0000
  Ar  Ar954     1.0  0.61958  0.59717  0.63143  1.0000
  Ar  Ar955     1.0  0.60205  0.62851  0.61012  1.0000
  Ar  Ar956     1.0  0.60082  0.62667  0.64528  1.0000
  Ar  Ar957     1.0  0.60886  0.60361  0.64572  1.0000
  Ar  Ar958     1.0  0.52845  0.45008  0.72515  1.0000
  Ar  Ar959     1.0  0.54002  0.44026  0.70758  1.0000
  Ar  Ar960     1.0  0.59388  0.50570  0.70758  1.0000
  Ar  Ar961     1.0  0.59870  0.63167  0.57640  1.0000
  Ar  Ar962     1.0  0.50570  0.43168  0.70758  1.0000
  Ar  Ar963     1.0  0.52286  0.43597  0.70758  1.0000
  Ar  Ar964     1.0  0.52244  0.35826  0.53909  1.0000
  Ar  Ar965     1.0  0.51003  0.36594  0.52137  1.0000
  Ar  Ar966     1.0  0.50269  0.58959  0.41664  1.0000
  Ar  Ar967     1.0  0.48553  0.58530  0.41664  1.0000
  Ar  Ar968     1.0  0.58959  0.52286  0.41664  1.0000
  Ar  Ar969     1.0  0.59388  0.50570  0.41664  1.0000
  Ar  Ar970     1.0  0.55756  0.50574  0.39625  1.0000
  Ar  Ar971     1.0  0.40249  0.57894  0.67776  1.0000
  Ar  Ar972     1.0  0.48549  0.54898  0.72797  1.0000
  Ar  Ar973     1.0  0.49710  0.57547  0.72515  1.0000
  Ar  Ar974     1.0  0.38149  0.57183  0.64528  1.0000
  Ar  Ar975     1.0  0.55474  0.62067  0.67819  1.0000
  Ar  Ar976     1.0  0.58179  0.58986  0.69249  1.0000
  Ar  Ar977     1.0  0.57894  0.62306  0.67776  1.0000
  Ar  Ar978     1.0  0.58823  0.60059  0.67819  1.0000
  Ar  Ar979     1.0  0.54831  0.60995  0.69249  1.0000
  Ar  Ar980     1.0  0.56486  0.59958  0.70905  1.0000
  Ar  Ar981     1.0  0.38451  0.44125  0.60284  1.0000
  Ar  Ar982     1.0  0.37680  0.42764  0.58142  1.0000
  Ar  Ar983     1.0  0.40017  0.41392  0.61431  1.0000
  Ar  Ar984     1.0  0.50165  0.35274  0.54280  1.0000
  Ar  Ar985     1.0  0.50165  0.35274  0.58142  1.0000
  Ar  Ar986     1.0  0.61741  0.49334  0.67605  1.0000
  Ar  Ar987     1.0  0.62814  0.55985  0.63316  1.0000
  Ar  Ar988     1.0  0.61312  0.58346  0.64746  1.0000
  Ar  Ar989     1.0  0.61742  0.56629  0.64746  1.0000
  Ar  Ar990     1.0  0.56111  0.63249  0.66240  1.0000
  Ar  Ar991     1.0  0.53221  0.61741  0.67605  1.0000
  Ar  Ar992     1.0  0.36667  0.55143  0.54268  1.0000
  Ar  Ar993     1.0  0.38101  0.57724  0.54781  1.0000
  Ar  Ar994     1.0  0.47724  0.41561  0.69249  1.0000
  Ar  Ar995     1.0  0.44376  0.43569  0.69249  1.0000
  Ar  Ar996     1.0  0.44660  0.40249  0.67776  1.0000
  Ar  Ar997     1.0  0.59791  0.37680  0.54280  1.0000
  Ar  Ar998     1.0  0.62171  0.54913  0.64746  1.0000
  Ar  Ar999     1.0  0.47412  0.36667  0.54268  1.0000
  Ar  Ar1000    1.0  0.59596  0.57917  0.67605  1.0000
  Ar  Ar1001    1.0  0.60025  0.56200  0.67605  1.0000
  Ar  Ar1002    1.0  0.57522  0.57769  0.70781  1.0000
  Ar  Ar1003    1.0  0.59566  0.61177  0.66240  1.0000
  Ar  Ar1004    1.0  0.55985  0.39741  0.63316  1.0000
  Ar  Ar1005    1.0  0.56629  0.40814  0.64746  1.0000
  Ar  Ar1006    1.0  0.46720  0.65861  0.58442  1.0000
  Ar  Ar1007    1.0  0.60669  0.57273  0.66175  1.0000
  Ar  Ar1008    1.0  0.35274  0.52390  0.54280  1.0000
  Ar  Ar1009    1.0  0.60669  0.57273  0.46246  1.0000
  Ar  Ar1010    1.0  0.59596  0.57917  0.44816  1.0000
  Ar  Ar1011    1.0  0.60886  0.60361  0.47849  1.0000
  Ar  Ar1012    1.0  0.46444  0.39306  0.46181  1.0000
  Ar  Ar1013    1.0  0.42989  0.41379  0.46181  1.0000
  Ar  Ar1014    1.0  0.51694  0.42316  0.69034  1.0000
  Ar  Ar1015    1.0  0.51051  0.41243  0.67605  1.0000
  Ar  Ar1016    1.0  0.49710  0.57547  0.39907  1.0000
  Ar  Ar1017    1.0  0.51982  0.55756  0.39625  1.0000
  Ar  Ar1018    1.0  0.60454  0.54484  0.44816  1.0000
  Ar  Ar1019    1.0  0.60240  0.51694  0.43387  1.0000
  Ar  Ar1020    1.0  0.59381  0.55127  0.43387  1.0000
  Ar  Ar1021    1.0  0.52552  0.38883  0.63316  1.0000
  Ar  Ar1022    1.0  0.54913  0.40385  0.64746  1.0000
  Ar  Ar1023    1.0  0.53196  0.39956  0.64746  1.0000
  Ar  Ar1024    1.0  0.60025  0.56200  0.44816  1.0000
  Ar  Ar1025    1.0  0.37189  0.44859  0.58512  1.0000
  Ar  Ar1026    1.0  0.49930  0.37238  0.61713  1.0000
  Ar  Ar1027    1.0  0.51480  0.39527  0.64746  1.0000
  Ar  Ar1028    1.0  0.48857  0.37882  0.63143  1.0000
  Ar  Ar1029    1.0  0.48549  0.54898  0.39625  1.0000
  Ar  Ar1030    1.0  0.54067  0.59842  0.70781  1.0000
  Ar  Ar1031    1.0  0.51986  0.59388  0.70758  1.0000
  Ar  Ar1032    1.0  0.61741  0.49334  0.44816  1.0000
  Ar  Ar1033    1.0  0.47412  0.36667  0.58153  1.0000
  Ar  Ar1034    1.0  0.53574  0.58389  0.72544  1.0000
  Ar  Ar1035    1.0  0.50574  0.46799  0.39625  1.0000
  Ar  Ar1036    1.0  0.47854  0.36690  0.61431  1.0000
  Ar  Ar1037    1.0  0.39889  0.60082  0.64528  1.0000
  Ar  Ar1038    1.0  0.54484  0.42101  0.67605  1.0000
  Ar  Ar1039    1.0  0.53840  0.41028  0.66175  1.0000
  Ar  Ar1040    1.0  0.42316  0.50861  0.43387  1.0000
  Ar  Ar1041    1.0  0.52767  0.41672  0.67605  1.0000
  Ar  Ar1042    1.0  0.51707  0.49561  0.39513  1.0000
  Ar  Ar1043    1.0  0.49561  0.50849  0.39513  1.0000
  Ar  Ar1044    1.0  0.65961  0.51003  0.52137  1.0000
  Ar  Ar1045    1.0  0.63249  0.46444  0.46180  1.0000
  Ar  Ar1046    1.0  0.65888  0.47412  0.54268  1.0000
  Ar  Ar1047    1.0  0.47213  0.63887  0.61887  1.0000
  Ar  Ar1048    1.0  0.47643  0.62171  0.64746  1.0000
  Ar  Ar1049    1.0  0.52994  0.51707  0.39513  1.0000
  Ar  Ar1050    1.0  0.42473  0.39889  0.64528  1.0000
  Ar  Ar1051    1.0  0.45372  0.38149  0.64528  1.0000
  Ar  Ar1052    1.0  0.50849  0.52994  0.39513  1.0000
